REMARK  Name = ../refined-set-2016/3t6b/3t6b_pocket.pdb
REMARK  288 active torsions:
REMARK  status: ('A' for Active; 'I' for Inactive)
REMARK    1  A    between atoms: _1  and  _3
REMARK    2  A    between atoms: _3  and  _4
REMARK    3  A    between atoms: _6  and  _8
REMARK    4  A    between atoms: _8  and  _9
REMARK    5  A    between atoms: _8  and  _11
REMARK    6  A    between atoms: _11  and  _12
REMARK    7  A    between atoms: _14  and  _16
REMARK    8  A    between atoms: _16  and  _17
REMARK    9  A    between atoms: _16  and  _19
REMARK   10  A    between atoms: _19  and  _20
REMARK   11  A    between atoms: _23  and  _25
REMARK   12  A    between atoms: _25  and  _26
REMARK   13  A    between atoms: _25  and  _28
REMARK   14  A    between atoms: _28  and  _29
REMARK   15  A    between atoms: _31  and  _33
REMARK   16  A    between atoms: _33  and  _34
REMARK   17  A    between atoms: _33  and  _36
REMARK   18  A    between atoms: _36  and  _37
REMARK   19  A    between atoms: _43  and  _45
REMARK   20  A    between atoms: _45  and  _46
REMARK   21  A    between atoms: _45  and  _48
REMARK   22  A    between atoms: _48  and  _49
REMARK   23  A    between atoms: _54  and  _55
REMARK   24  A    between atoms: _57  and  _59
REMARK   25  A    between atoms: _59  and  _60
REMARK   26  A    between atoms: _59  and  _62
REMARK   27  A    between atoms: _62  and  _63
REMARK   28  A    between atoms: _66  and  _68
REMARK   29  A    between atoms: _68  and  _69
REMARK   30  A    between atoms: _68  and  _71
REMARK   31  A    between atoms: _71  and  _72
REMARK   32  A    between atoms: _72  and  _73
REMARK   33  A    between atoms: _76  and  _78
REMARK   34  A    between atoms: _78  and  _79
REMARK   35  A    between atoms: _78  and  _81
REMARK   36  A    between atoms: _81  and  _82
REMARK   37  A    between atoms: _84  and  _86
REMARK   38  A    between atoms: _86  and  _87
REMARK   39  A    between atoms: _86  and  _89
REMARK   40  A    between atoms: _89  and  _90
REMARK   41  A    between atoms: _95  and  _96
REMARK   42  A    between atoms: _98  and  _100
REMARK   43  A    between atoms: _100  and  _101
REMARK   44  A    between atoms: _100  and  _103
REMARK   45  A    between atoms: _103  and  _104
REMARK   46  A    between atoms: _104  and  _105
REMARK   47  A    between atoms: _108  and  _110
REMARK   48  A    between atoms: _110  and  _111
REMARK   49  A    between atoms: _110  and  _113
REMARK   50  A    between atoms: _113  and  _114
REMARK   51  A    between atoms: _120  and  _122
REMARK   52  A    between atoms: _122  and  _123
REMARK   53  A    between atoms: _122  and  _125
REMARK   54  A    between atoms: _125  and  _126
REMARK   55  A    between atoms: _128  and  _130
REMARK   56  A    between atoms: _130  and  _131
REMARK   57  A    between atoms: _133  and  _135
REMARK   58  A    between atoms: _135  and  _136
REMARK   59  A    between atoms: _135  and  _138
REMARK   60  A    between atoms: _138  and  _139
REMARK   61  A    between atoms: _143  and  _144
REMARK   62  A    between atoms: _149  and  _151
REMARK   63  A    between atoms: _151  and  _152
REMARK   64  A    between atoms: _155  and  _157
REMARK   65  A    between atoms: _157  and  _158
REMARK   66  A    between atoms: _160  and  _162
REMARK   67  A    between atoms: _162  and  _163
REMARK   68  A    between atoms: _162  and  _165
REMARK   69  A    between atoms: _165  and  _166
REMARK   70  A    between atoms: _169  and  _171
REMARK   71  A    between atoms: _171  and  _172
REMARK   72  A    between atoms: _171  and  _174
REMARK   73  A    between atoms: _174  and  _175
REMARK   74  A    between atoms: _180  and  _182
REMARK   75  A    between atoms: _182  and  _183
REMARK   76  A    between atoms: _182  and  _185
REMARK   77  A    between atoms: _185  and  _186
REMARK   78  A    between atoms: _190  and  _191
REMARK   79  A    between atoms: _196  and  _198
REMARK   80  A    between atoms: _198  and  _199
REMARK   81  A    between atoms: _198  and  _201
REMARK   82  A    between atoms: _201  and  _202
REMARK   83  A    between atoms: _207  and  _209
REMARK   84  A    between atoms: _209  and  _210
REMARK   85  A    between atoms: _209  and  _212
REMARK   86  A    between atoms: _212  and  _213
REMARK   87  A    between atoms: _218  and  _219
REMARK   88  A    between atoms: _221  and  _223
REMARK   89  A    between atoms: _223  and  _224
REMARK   90  A    between atoms: _223  and  _226
REMARK   91  A    between atoms: _226  and  _227
REMARK   92  A    between atoms: _230  and  _232
REMARK   93  A    between atoms: _232  and  _233
REMARK   94  A    between atoms: _232  and  _235
REMARK   95  A    between atoms: _235  and  _236
REMARK   96  A    between atoms: _236  and  _237
REMARK   97  A    between atoms: _237  and  _238
REMARK   98  A    between atoms: _247  and  _249
REMARK   99  A    between atoms: _249  and  _250
REMARK  100  A    between atoms: _249  and  _252
REMARK  101  A    between atoms: _252  and  _253
REMARK  102  A    between atoms: _253  and  _254
REMARK  103  A    between atoms: _254  and  _255
REMARK  104  A    between atoms: _255  and  _256
REMARK  105  A    between atoms: _260  and  _262
REMARK  106  A    between atoms: _262  and  _263
REMARK  107  A    between atoms: _262  and  _265
REMARK  108  A    between atoms: _265  and  _266
REMARK  109  A    between atoms: _271  and  _273
REMARK  110  A    between atoms: _273  and  _274
REMARK  111  A    between atoms: _273  and  _276
REMARK  112  A    between atoms: _279  and  _281
REMARK  113  A    between atoms: _281  and  _282
REMARK  114  A    between atoms: _281  and  _284
REMARK  115  A    between atoms: _284  and  _285
REMARK  116  A    between atoms: _288  and  _290
REMARK  117  A    between atoms: _290  and  _291
REMARK  118  A    between atoms: _290  and  _293
REMARK  119  A    between atoms: _296  and  _298
REMARK  120  A    between atoms: _298  and  _299
REMARK  121  A    between atoms: _298  and  _301
REMARK  122  A    between atoms: _301  and  _302
REMARK  123  A    between atoms: _305  and  _307
REMARK  124  A    between atoms: _307  and  _308
REMARK  125  A    between atoms: _311  and  _313
REMARK  126  A    between atoms: _313  and  _314
REMARK  127  A    between atoms: _313  and  _316
REMARK  128  A    between atoms: _319  and  _321
REMARK  129  A    between atoms: _321  and  _322
REMARK  130  A    between atoms: _325  and  _327
REMARK  131  A    between atoms: _327  and  _328
REMARK  132  A    between atoms: _331  and  _333
REMARK  133  A    between atoms: _333  and  _334
REMARK  134  A    between atoms: _333  and  _336
REMARK  135  A    between atoms: _336  and  _337
REMARK  136  A    between atoms: _342  and  _343
REMARK  137  A    between atoms: _345  and  _347
REMARK  138  A    between atoms: _347  and  _348
REMARK  139  A    between atoms: _347  and  _350
REMARK  140  A    between atoms: _350  and  _351
REMARK  141  A    between atoms: _351  and  _352
REMARK  142  A    between atoms: _352  and  _353
REMARK  143  A    between atoms: _353  and  _354
REMARK  144  A    between atoms: _358  and  _360
REMARK  145  A    between atoms: _360  and  _361
REMARK  146  A    between atoms: _360  and  _363
REMARK  147  A    between atoms: _363  and  _364
REMARK  148  A    between atoms: _366  and  _368
REMARK  149  A    between atoms: _368  and  _369
REMARK  150  A    between atoms: _368  and  _371
REMARK  151  A    between atoms: _371  and  _372
REMARK  152  A    between atoms: _378  and  _380
REMARK  153  A    between atoms: _380  and  _381
REMARK  154  A    between atoms: _380  and  _383
REMARK  155  A    between atoms: _383  and  _384
REMARK  156  A    between atoms: _387  and  _389
REMARK  157  A    between atoms: _389  and  _390
REMARK  158  A    between atoms: _389  and  _392
REMARK  159  A    between atoms: _395  and  _397
REMARK  160  A    between atoms: _397  and  _398
REMARK  161  A    between atoms: _397  and  _400
REMARK  162  A    between atoms: _400  and  _401
REMARK  163  A    between atoms: _401  and  _402
REMARK  164  A    between atoms: _407  and  _409
REMARK  165  A    between atoms: _409  and  _410
REMARK  166  A    between atoms: _409  and  _412
REMARK  167  A    between atoms: _415  and  _417
REMARK  168  A    between atoms: _417  and  _418
REMARK  169  A    between atoms: _420  and  _422
REMARK  170  A    between atoms: _422  and  _423
REMARK  171  A    between atoms: _422  and  _425
REMARK  172  A    between atoms: _425  and  _426
REMARK  173  A    between atoms: _429  and  _431
REMARK  174  A    between atoms: _431  and  _432
REMARK  175  A    between atoms: _431  and  _434
REMARK  176  A    between atoms: _434  and  _435
REMARK  177  A    between atoms: _440  and  _442
REMARK  178  A    between atoms: _442  and  _443
REMARK  179  A    between atoms: _446  and  _448
REMARK  180  A    between atoms: _448  and  _449
REMARK  181  A    between atoms: _448  and  _451
REMARK  182  A    between atoms: _451  and  _452
REMARK  183  A    between atoms: _457  and  _459
REMARK  184  A    between atoms: _459  and  _460
REMARK  185  A    between atoms: _459  and  _462
REMARK  186  A    between atoms: _462  and  _463
REMARK  187  A    between atoms: _473  and  _475
REMARK  188  A    between atoms: _475  and  _476
REMARK  189  A    between atoms: _475  and  _478
REMARK  190  A    between atoms: _478  and  _479
REMARK  191  A    between atoms: _482  and  _484
REMARK  192  A    between atoms: _484  and  _485
REMARK  193  A    between atoms: _488  and  _490
REMARK  194  A    between atoms: _490  and  _491
REMARK  195  A    between atoms: _490  and  _493
REMARK  196  A    between atoms: _493  and  _494
REMARK  197  A    between atoms: _496  and  _498
REMARK  198  A    between atoms: _498  and  _499
REMARK  199  A    between atoms: _498  and  _501
REMARK  200  A    between atoms: _501  and  _502
REMARK  201  A    between atoms: _502  and  _503
REMARK  202  A    between atoms: _506  and  _508
REMARK  203  A    between atoms: _508  and  _509
REMARK  204  A    between atoms: _508  and  _511
REMARK  205  A    between atoms: _511  and  _512
REMARK  206  A    between atoms: _512  and  _513
REMARK  207  A    between atoms: _516  and  _518
REMARK  208  A    between atoms: _518  and  _519
REMARK  209  A    between atoms: _518  and  _521
REMARK  210  A    between atoms: _521  and  _522
REMARK  211  A    between atoms: _522  and  _523
REMARK  212  A    between atoms: _523  and  _524
REMARK  213  A    between atoms: _533  and  _535
REMARK  214  A    between atoms: _535  and  _536
REMARK  215  A    between atoms: _539  and  _541
REMARK  216  A    between atoms: _541  and  _542
REMARK  217  A    between atoms: _541  and  _544
REMARK  218  A    between atoms: _544  and  _545
REMARK  219  A    between atoms: _545  and  _546
REMARK  220  A    between atoms: _549  and  _551
REMARK  221  A    between atoms: _551  and  _552
REMARK  222  A    between atoms: _554  and  _556
REMARK  223  A    between atoms: _556  and  _557
REMARK  224  A    between atoms: _556  and  _559
REMARK  225  A    between atoms: _559  and  _560
REMARK  226  A    between atoms: _565  and  _567
REMARK  227  A    between atoms: _567  and  _568
REMARK  228  A    between atoms: _567  and  _570
REMARK  229  A    between atoms: _570  and  _571
REMARK  230  A    between atoms: _576  and  _578
REMARK  231  A    between atoms: _578  and  _579
REMARK  232  A    between atoms: _578  and  _581
REMARK  233  A    between atoms: _581  and  _582
REMARK  234  A    between atoms: _582  and  _583
REMARK  235  A    between atoms: _585  and  _587
REMARK  236  A    between atoms: _587  and  _588
REMARK  237  A    between atoms: _587  and  _590
REMARK  238  A    between atoms: _590  and  _591
REMARK  239  A    between atoms: _591  and  _592
REMARK  240  A    between atoms: _597  and  _599
REMARK  241  A    between atoms: _599  and  _600
REMARK  242  A    between atoms: _603  and  _605
REMARK  243  A    between atoms: _605  and  _606
REMARK  244  A    between atoms: _605  and  _608
REMARK  245  A    between atoms: _608  and  _609
REMARK  246  A    between atoms: _614  and  _616
REMARK  247  A    between atoms: _616  and  _617
REMARK  248  A    between atoms: _616  and  _619
REMARK  249  A    between atoms: _619  and  _620
REMARK  250  A    between atoms: _620  and  _621
REMARK  251  A    between atoms: _623  and  _625
REMARK  252  A    between atoms: _625  and  _626
REMARK  253  A    between atoms: _625  and  _628
REMARK  254  A    between atoms: _628  and  _629
REMARK  255  A    between atoms: _629  and  _630
REMARK  256  A    between atoms: _630  and  _631
REMARK  257  A    between atoms: _640  and  _642
REMARK  258  A    between atoms: _642  and  _643
REMARK  259  A    between atoms: _642  and  _645
REMARK  260  A    between atoms: _645  and  _646
REMARK  261  A    between atoms: _646  and  _647
REMARK  262  A    between atoms: _647  and  _648
REMARK  263  A    between atoms: _648  and  _649
REMARK  264  A    between atoms: _653  and  _655
REMARK  265  A    between atoms: _655  and  _656
REMARK  266  A    between atoms: _655  and  _658
REMARK  267  A    between atoms: _658  and  _659
REMARK  268  A    between atoms: _661  and  _663
REMARK  269  A    between atoms: _663  and  _664
REMARK  270  A    between atoms: _663  and  _666
REMARK  271  A    between atoms: _666  and  _667
REMARK  272  A    between atoms: _667  and  _668
REMARK  273  A    between atoms: _668  and  _669
REMARK  274  A    between atoms: _678  and  _680
REMARK  275  A    between atoms: _680  and  _681
REMARK  276  A    between atoms: _680  and  _683
REMARK  277  A    between atoms: _683  and  _684
REMARK  278  A    between atoms: _684  and  _685
REMARK  279  A    between atoms: _685  and  _686
REMARK  280  A    between atoms: _686  and  _687
REMARK  281  A    between atoms: _691  and  _693
REMARK  282  A    between atoms: _693  and  _694
REMARK  283  A    between atoms: _693  and  _696
REMARK  284  A    between atoms: _696  and  _697
REMARK  285  A    between atoms: _700  and  _702
REMARK  286  A    between atoms: _702  and  _703
REMARK  287  A    between atoms: _702  and  _705
REMARK  288  A    between atoms: _705  and  _706
REMARK                            x       y       z     vdW  Elec       q    Type
REMARK                         _______ _______ _______ _____ _____    ______ ____
ROOT
ATOM      1  CA  GLY A   1       3.845  18.715  37.974  0.00  0.00    +0.156 C 
ENDROOT
BRANCH   1   2
ATOM      2  N   GLY A   1       2.748  19.044  38.864  0.00  0.00    -0.238 NA
ATOM      3  H   GLY A   1       2.856  19.823  39.545  0.00  0.00    +0.142 HD
ENDBRANCH   1   2
BRANCH   1   4
ATOM      4  C   GLY A   1       4.393  17.315  38.187  0.00  0.00    +0.226 C 
ATOM      5  O   GLY A   1       4.299  16.757  39.283  0.00  0.00    -0.287 OA
ENDBRANCH   1   4
TORSDOF 2
REMARK  Name = ../refined-set-2016/3t6b/3t6b_pocket.pdb
REMARK  288 active torsions:
REMARK  status: ('A' for Active; 'I' for Inactive)
REMARK    1  A    between atoms: _1  and  _3
REMARK    2  A    between atoms: _3  and  _4
REMARK    3  A    between atoms: _6  and  _8
REMARK    4  A    between atoms: _8  and  _9
REMARK    5  A    between atoms: _8  and  _11
REMARK    6  A    between atoms: _11  and  _12
REMARK    7  A    between atoms: _14  and  _16
REMARK    8  A    between atoms: _16  and  _17
REMARK    9  A    between atoms: _16  and  _19
REMARK   10  A    between atoms: _19  and  _20
REMARK   11  A    between atoms: _23  and  _25
REMARK   12  A    between atoms: _25  and  _26
REMARK   13  A    between atoms: _25  and  _28
REMARK   14  A    between atoms: _28  and  _29
REMARK   15  A    between atoms: _31  and  _33
REMARK   16  A    between atoms: _33  and  _34
REMARK   17  A    between atoms: _33  and  _36
REMARK   18  A    between atoms: _36  and  _37
REMARK   19  A    between atoms: _43  and  _45
REMARK   20  A    between atoms: _45  and  _46
REMARK   21  A    between atoms: _45  and  _48
REMARK   22  A    between atoms: _48  and  _49
REMARK   23  A    between atoms: _54  and  _55
REMARK   24  A    between atoms: _57  and  _59
REMARK   25  A    between atoms: _59  and  _60
REMARK   26  A    between atoms: _59  and  _62
REMARK   27  A    between atoms: _62  and  _63
REMARK   28  A    between atoms: _66  and  _68
REMARK   29  A    between atoms: _68  and  _69
REMARK   30  A    between atoms: _68  and  _71
REMARK   31  A    between atoms: _71  and  _72
REMARK   32  A    between atoms: _72  and  _73
REMARK   33  A    between atoms: _76  and  _78
REMARK   34  A    between atoms: _78  and  _79
REMARK   35  A    between atoms: _78  and  _81
REMARK   36  A    between atoms: _81  and  _82
REMARK   37  A    between atoms: _84  and  _86
REMARK   38  A    between atoms: _86  and  _87
REMARK   39  A    between atoms: _86  and  _89
REMARK   40  A    between atoms: _89  and  _90
REMARK   41  A    between atoms: _95  and  _96
REMARK   42  A    between atoms: _98  and  _100
REMARK   43  A    between atoms: _100  and  _101
REMARK   44  A    between atoms: _100  and  _103
REMARK   45  A    between atoms: _103  and  _104
REMARK   46  A    between atoms: _104  and  _105
REMARK   47  A    between atoms: _108  and  _110
REMARK   48  A    between atoms: _110  and  _111
REMARK   49  A    between atoms: _110  and  _113
REMARK   50  A    between atoms: _113  and  _114
REMARK   51  A    between atoms: _120  and  _122
REMARK   52  A    between atoms: _122  and  _123
REMARK   53  A    between atoms: _122  and  _125
REMARK   54  A    between atoms: _125  and  _126
REMARK   55  A    between atoms: _128  and  _130
REMARK   56  A    between atoms: _130  and  _131
REMARK   57  A    between atoms: _133  and  _135
REMARK   58  A    between atoms: _135  and  _136
REMARK   59  A    between atoms: _135  and  _138
REMARK   60  A    between atoms: _138  and  _139
REMARK   61  A    between atoms: _143  and  _144
REMARK   62  A    between atoms: _149  and  _151
REMARK   63  A    between atoms: _151  and  _152
REMARK   64  A    between atoms: _155  and  _157
REMARK   65  A    between atoms: _157  and  _158
REMARK   66  A    between atoms: _160  and  _162
REMARK   67  A    between atoms: _162  and  _163
REMARK   68  A    between atoms: _162  and  _165
REMARK   69  A    between atoms: _165  and  _166
REMARK   70  A    between atoms: _169  and  _171
REMARK   71  A    between atoms: _171  and  _172
REMARK   72  A    between atoms: _171  and  _174
REMARK   73  A    between atoms: _174  and  _175
REMARK   74  A    between atoms: _180  and  _182
REMARK   75  A    between atoms: _182  and  _183
REMARK   76  A    between atoms: _182  and  _185
REMARK   77  A    between atoms: _185  and  _186
REMARK   78  A    between atoms: _190  and  _191
REMARK   79  A    between atoms: _196  and  _198
REMARK   80  A    between atoms: _198  and  _199
REMARK   81  A    between atoms: _198  and  _201
REMARK   82  A    between atoms: _201  and  _202
REMARK   83  A    between atoms: _207  and  _209
REMARK   84  A    between atoms: _209  and  _210
REMARK   85  A    between atoms: _209  and  _212
REMARK   86  A    between atoms: _212  and  _213
REMARK   87  A    between atoms: _218  and  _219
REMARK   88  A    between atoms: _221  and  _223
REMARK   89  A    between atoms: _223  and  _224
REMARK   90  A    between atoms: _223  and  _226
REMARK   91  A    between atoms: _226  and  _227
REMARK   92  A    between atoms: _230  and  _232
REMARK   93  A    between atoms: _232  and  _233
REMARK   94  A    between atoms: _232  and  _235
REMARK   95  A    between atoms: _235  and  _236
REMARK   96  A    between atoms: _236  and  _237
REMARK   97  A    between atoms: _237  and  _238
REMARK   98  A    between atoms: _247  and  _249
REMARK   99  A    between atoms: _249  and  _250
REMARK  100  A    between atoms: _249  and  _252
REMARK  101  A    between atoms: _252  and  _253
REMARK  102  A    between atoms: _253  and  _254
REMARK  103  A    between atoms: _254  and  _255
REMARK  104  A    between atoms: _255  and  _256
REMARK  105  A    between atoms: _260  and  _262
REMARK  106  A    between atoms: _262  and  _263
REMARK  107  A    between atoms: _262  and  _265
REMARK  108  A    between atoms: _265  and  _266
REMARK  109  A    between atoms: _271  and  _273
REMARK  110  A    between atoms: _273  and  _274
REMARK  111  A    between atoms: _273  and  _276
REMARK  112  A    between atoms: _279  and  _281
REMARK  113  A    between atoms: _281  and  _282
REMARK  114  A    between atoms: _281  and  _284
REMARK  115  A    between atoms: _284  and  _285
REMARK  116  A    between atoms: _288  and  _290
REMARK  117  A    between atoms: _290  and  _291
REMARK  118  A    between atoms: _290  and  _293
REMARK  119  A    between atoms: _296  and  _298
REMARK  120  A    between atoms: _298  and  _299
REMARK  121  A    between atoms: _298  and  _301
REMARK  122  A    between atoms: _301  and  _302
REMARK  123  A    between atoms: _305  and  _307
REMARK  124  A    between atoms: _307  and  _308
REMARK  125  A    between atoms: _311  and  _313
REMARK  126  A    between atoms: _313  and  _314
REMARK  127  A    between atoms: _313  and  _316
REMARK  128  A    between atoms: _319  and  _321
REMARK  129  A    between atoms: _321  and  _322
REMARK  130  A    between atoms: _325  and  _327
REMARK  131  A    between atoms: _327  and  _328
REMARK  132  A    between atoms: _331  and  _333
REMARK  133  A    between atoms: _333  and  _334
REMARK  134  A    between atoms: _333  and  _336
REMARK  135  A    between atoms: _336  and  _337
REMARK  136  A    between atoms: _342  and  _343
REMARK  137  A    between atoms: _345  and  _347
REMARK  138  A    between atoms: _347  and  _348
REMARK  139  A    between atoms: _347  and  _350
REMARK  140  A    between atoms: _350  and  _351
REMARK  141  A    between atoms: _351  and  _352
REMARK  142  A    between atoms: _352  and  _353
REMARK  143  A    between atoms: _353  and  _354
REMARK  144  A    between atoms: _358  and  _360
REMARK  145  A    between atoms: _360  and  _361
REMARK  146  A    between atoms: _360  and  _363
REMARK  147  A    between atoms: _363  and  _364
REMARK  148  A    between atoms: _366  and  _368
REMARK  149  A    between atoms: _368  and  _369
REMARK  150  A    between atoms: _368  and  _371
REMARK  151  A    between atoms: _371  and  _372
REMARK  152  A    between atoms: _378  and  _380
REMARK  153  A    between atoms: _380  and  _381
REMARK  154  A    between atoms: _380  and  _383
REMARK  155  A    between atoms: _383  and  _384
REMARK  156  A    between atoms: _387  and  _389
REMARK  157  A    between atoms: _389  and  _390
REMARK  158  A    between atoms: _389  and  _392
REMARK  159  A    between atoms: _395  and  _397
REMARK  160  A    between atoms: _397  and  _398
REMARK  161  A    between atoms: _397  and  _400
REMARK  162  A    between atoms: _400  and  _401
REMARK  163  A    between atoms: _401  and  _402
REMARK  164  A    between atoms: _407  and  _409
REMARK  165  A    between atoms: _409  and  _410
REMARK  166  A    between atoms: _409  and  _412
REMARK  167  A    between atoms: _415  and  _417
REMARK  168  A    between atoms: _417  and  _418
REMARK  169  A    between atoms: _420  and  _422
REMARK  170  A    between atoms: _422  and  _423
REMARK  171  A    between atoms: _422  and  _425
REMARK  172  A    between atoms: _425  and  _426
REMARK  173  A    between atoms: _429  and  _431
REMARK  174  A    between atoms: _431  and  _432
REMARK  175  A    between atoms: _431  and  _434
REMARK  176  A    between atoms: _434  and  _435
REMARK  177  A    between atoms: _440  and  _442
REMARK  178  A    between atoms: _442  and  _443
REMARK  179  A    between atoms: _446  and  _448
REMARK  180  A    between atoms: _448  and  _449
REMARK  181  A    between atoms: _448  and  _451
REMARK  182  A    between atoms: _451  and  _452
REMARK  183  A    between atoms: _457  and  _459
REMARK  184  A    between atoms: _459  and  _460
REMARK  185  A    between atoms: _459  and  _462
REMARK  186  A    between atoms: _462  and  _463
REMARK  187  A    between atoms: _473  and  _475
REMARK  188  A    between atoms: _475  and  _476
REMARK  189  A    between atoms: _475  and  _478
REMARK  190  A    between atoms: _478  and  _479
REMARK  191  A    between atoms: _482  and  _484
REMARK  192  A    between atoms: _484  and  _485
REMARK  193  A    between atoms: _488  and  _490
REMARK  194  A    between atoms: _490  and  _491
REMARK  195  A    between atoms: _490  and  _493
REMARK  196  A    between atoms: _493  and  _494
REMARK  197  A    between atoms: _496  and  _498
REMARK  198  A    between atoms: _498  and  _499
REMARK  199  A    between atoms: _498  and  _501
REMARK  200  A    between atoms: _501  and  _502
REMARK  201  A    between atoms: _502  and  _503
REMARK  202  A    between atoms: _506  and  _508
REMARK  203  A    between atoms: _508  and  _509
REMARK  204  A    between atoms: _508  and  _511
REMARK  205  A    between atoms: _511  and  _512
REMARK  206  A    between atoms: _512  and  _513
REMARK  207  A    between atoms: _516  and  _518
REMARK  208  A    between atoms: _518  and  _519
REMARK  209  A    between atoms: _518  and  _521
REMARK  210  A    between atoms: _521  and  _522
REMARK  211  A    between atoms: _522  and  _523
REMARK  212  A    between atoms: _523  and  _524
REMARK  213  A    between atoms: _533  and  _535
REMARK  214  A    between atoms: _535  and  _536
REMARK  215  A    between atoms: _539  and  _541
REMARK  216  A    between atoms: _541  and  _542
REMARK  217  A    between atoms: _541  and  _544
REMARK  218  A    between atoms: _544  and  _545
REMARK  219  A    between atoms: _545  and  _546
REMARK  220  A    between atoms: _549  and  _551
REMARK  221  A    between atoms: _551  and  _552
REMARK  222  A    between atoms: _554  and  _556
REMARK  223  A    between atoms: _556  and  _557
REMARK  224  A    between atoms: _556  and  _559
REMARK  225  A    between atoms: _559  and  _560
REMARK  226  A    between atoms: _565  and  _567
REMARK  227  A    between atoms: _567  and  _568
REMARK  228  A    between atoms: _567  and  _570
REMARK  229  A    between atoms: _570  and  _571
REMARK  230  A    between atoms: _576  and  _578
REMARK  231  A    between atoms: _578  and  _579
REMARK  232  A    between atoms: _578  and  _581
REMARK  233  A    between atoms: _581  and  _582
REMARK  234  A    between atoms: _582  and  _583
REMARK  235  A    between atoms: _585  and  _587
REMARK  236  A    between atoms: _587  and  _588
REMARK  237  A    between atoms: _587  and  _590
REMARK  238  A    between atoms: _590  and  _591
REMARK  239  A    between atoms: _591  and  _592
REMARK  240  A    between atoms: _597  and  _599
REMARK  241  A    between atoms: _599  and  _600
REMARK  242  A    between atoms: _603  and  _605
REMARK  243  A    between atoms: _605  and  _606
REMARK  244  A    between atoms: _605  and  _608
REMARK  245  A    between atoms: _608  and  _609
REMARK  246  A    between atoms: _614  and  _616
REMARK  247  A    between atoms: _616  and  _617
REMARK  248  A    between atoms: _616  and  _619
REMARK  249  A    between atoms: _619  and  _620
REMARK  250  A    between atoms: _620  and  _621
REMARK  251  A    between atoms: _623  and  _625
REMARK  252  A    between atoms: _625  and  _626
REMARK  253  A    between atoms: _625  and  _628
REMARK  254  A    between atoms: _628  and  _629
REMARK  255  A    between atoms: _629  and  _630
REMARK  256  A    between atoms: _630  and  _631
REMARK  257  A    between atoms: _640  and  _642
REMARK  258  A    between atoms: _642  and  _643
REMARK  259  A    between atoms: _642  and  _645
REMARK  260  A    between atoms: _645  and  _646
REMARK  261  A    between atoms: _646  and  _647
REMARK  262  A    between atoms: _647  and  _648
REMARK  263  A    between atoms: _648  and  _649
REMARK  264  A    between atoms: _653  and  _655
REMARK  265  A    between atoms: _655  and  _656
REMARK  266  A    between atoms: _655  and  _658
REMARK  267  A    between atoms: _658  and  _659
REMARK  268  A    between atoms: _661  and  _663
REMARK  269  A    between atoms: _663  and  _664
REMARK  270  A    between atoms: _663  and  _666
REMARK  271  A    between atoms: _666  and  _667
REMARK  272  A    between atoms: _667  and  _668
REMARK  273  A    between atoms: _668  and  _669
REMARK  274  A    between atoms: _678  and  _680
REMARK  275  A    between atoms: _680  and  _681
REMARK  276  A    between atoms: _680  and  _683
REMARK  277  A    between atoms: _683  and  _684
REMARK  278  A    between atoms: _684  and  _685
REMARK  279  A    between atoms: _685  and  _686
REMARK  280  A    between atoms: _686  and  _687
REMARK  281  A    between atoms: _691  and  _693
REMARK  282  A    between atoms: _693  and  _694
REMARK  283  A    between atoms: _693  and  _696
REMARK  284  A    between atoms: _696  and  _697
REMARK  285  A    between atoms: _700  and  _702
REMARK  286  A    between atoms: _702  and  _703
REMARK  287  A    between atoms: _702  and  _705
REMARK  288  A    between atoms: _705  and  _706
REMARK                            x       y       z     vdW  Elec       q    Type
REMARK                         _______ _______ _______ _____ _____    ______ ____
ROOT
ATOM      1  CA  SER A   1       9.332  15.237  36.038  0.00  0.00    +0.163 C 
ENDROOT
BRANCH   1   2
ATOM      2  N   SER A   1       8.128  15.304  36.856  0.00  0.00    -0.237 NA
ATOM      3  H   SER A   1       8.191  15.128  37.879  0.00  0.00    +0.142 HD
ENDBRANCH   1   2
BRANCH   1   4
ATOM      4  C   SER A   1      10.003  13.874  36.126  0.00  0.00    +0.227 C 
ATOM      5  O   SER A   1       9.864  13.163  37.121  0.00  0.00    -0.287 OA
ENDBRANCH   1   4
BRANCH   1   6
ATOM      6  CB  SER A   1      10.321  16.330  36.436  0.00  0.00    +0.162 C 
BRANCH   6   7
ATOM      7  OG  SER A   1      10.056  17.529  35.729  0.00  0.00    -0.380 OA
ATOM      8  H   SER A   1      10.708  18.223  36.002  0.00  0.00    +0.211 HD
ENDBRANCH   6   7
ENDBRANCH   1   6
TORSDOF 4
REMARK  Name = ../refined-set-2016/3t6b/3t6b_pocket.pdb
REMARK  288 active torsions:
REMARK  status: ('A' for Active; 'I' for Inactive)
REMARK    1  A    between atoms: _1  and  _3
REMARK    2  A    between atoms: _3  and  _4
REMARK    3  A    between atoms: _6  and  _8
REMARK    4  A    between atoms: _8  and  _9
REMARK    5  A    between atoms: _8  and  _11
REMARK    6  A    between atoms: _11  and  _12
REMARK    7  A    between atoms: _14  and  _16
REMARK    8  A    between atoms: _16  and  _17
REMARK    9  A    between atoms: _16  and  _19
REMARK   10  A    between atoms: _19  and  _20
REMARK   11  A    between atoms: _23  and  _25
REMARK   12  A    between atoms: _25  and  _26
REMARK   13  A    between atoms: _25  and  _28
REMARK   14  A    between atoms: _28  and  _29
REMARK   15  A    between atoms: _31  and  _33
REMARK   16  A    between atoms: _33  and  _34
REMARK   17  A    between atoms: _33  and  _36
REMARK   18  A    between atoms: _36  and  _37
REMARK   19  A    between atoms: _43  and  _45
REMARK   20  A    between atoms: _45  and  _46
REMARK   21  A    between atoms: _45  and  _48
REMARK   22  A    between atoms: _48  and  _49
REMARK   23  A    between atoms: _54  and  _55
REMARK   24  A    between atoms: _57  and  _59
REMARK   25  A    between atoms: _59  and  _60
REMARK   26  A    between atoms: _59  and  _62
REMARK   27  A    between atoms: _62  and  _63
REMARK   28  A    between atoms: _66  and  _68
REMARK   29  A    between atoms: _68  and  _69
REMARK   30  A    between atoms: _68  and  _71
REMARK   31  A    between atoms: _71  and  _72
REMARK   32  A    between atoms: _72  and  _73
REMARK   33  A    between atoms: _76  and  _78
REMARK   34  A    between atoms: _78  and  _79
REMARK   35  A    between atoms: _78  and  _81
REMARK   36  A    between atoms: _81  and  _82
REMARK   37  A    between atoms: _84  and  _86
REMARK   38  A    between atoms: _86  and  _87
REMARK   39  A    between atoms: _86  and  _89
REMARK   40  A    between atoms: _89  and  _90
REMARK   41  A    between atoms: _95  and  _96
REMARK   42  A    between atoms: _98  and  _100
REMARK   43  A    between atoms: _100  and  _101
REMARK   44  A    between atoms: _100  and  _103
REMARK   45  A    between atoms: _103  and  _104
REMARK   46  A    between atoms: _104  and  _105
REMARK   47  A    between atoms: _108  and  _110
REMARK   48  A    between atoms: _110  and  _111
REMARK   49  A    between atoms: _110  and  _113
REMARK   50  A    between atoms: _113  and  _114
REMARK   51  A    between atoms: _120  and  _122
REMARK   52  A    between atoms: _122  and  _123
REMARK   53  A    between atoms: _122  and  _125
REMARK   54  A    between atoms: _125  and  _126
REMARK   55  A    between atoms: _128  and  _130
REMARK   56  A    between atoms: _130  and  _131
REMARK   57  A    between atoms: _133  and  _135
REMARK   58  A    between atoms: _135  and  _136
REMARK   59  A    between atoms: _135  and  _138
REMARK   60  A    between atoms: _138  and  _139
REMARK   61  A    between atoms: _143  and  _144
REMARK   62  A    between atoms: _149  and  _151
REMARK   63  A    between atoms: _151  and  _152
REMARK   64  A    between atoms: _155  and  _157
REMARK   65  A    between atoms: _157  and  _158
REMARK   66  A    between atoms: _160  and  _162
REMARK   67  A    between atoms: _162  and  _163
REMARK   68  A    between atoms: _162  and  _165
REMARK   69  A    between atoms: _165  and  _166
REMARK   70  A    between atoms: _169  and  _171
REMARK   71  A    between atoms: _171  and  _172
REMARK   72  A    between atoms: _171  and  _174
REMARK   73  A    between atoms: _174  and  _175
REMARK   74  A    between atoms: _180  and  _182
REMARK   75  A    between atoms: _182  and  _183
REMARK   76  A    between atoms: _182  and  _185
REMARK   77  A    between atoms: _185  and  _186
REMARK   78  A    between atoms: _190  and  _191
REMARK   79  A    between atoms: _196  and  _198
REMARK   80  A    between atoms: _198  and  _199
REMARK   81  A    between atoms: _198  and  _201
REMARK   82  A    between atoms: _201  and  _202
REMARK   83  A    between atoms: _207  and  _209
REMARK   84  A    between atoms: _209  and  _210
REMARK   85  A    between atoms: _209  and  _212
REMARK   86  A    between atoms: _212  and  _213
REMARK   87  A    between atoms: _218  and  _219
REMARK   88  A    between atoms: _221  and  _223
REMARK   89  A    between atoms: _223  and  _224
REMARK   90  A    between atoms: _223  and  _226
REMARK   91  A    between atoms: _226  and  _227
REMARK   92  A    between atoms: _230  and  _232
REMARK   93  A    between atoms: _232  and  _233
REMARK   94  A    between atoms: _232  and  _235
REMARK   95  A    between atoms: _235  and  _236
REMARK   96  A    between atoms: _236  and  _237
REMARK   97  A    between atoms: _237  and  _238
REMARK   98  A    between atoms: _247  and  _249
REMARK   99  A    between atoms: _249  and  _250
REMARK  100  A    between atoms: _249  and  _252
REMARK  101  A    between atoms: _252  and  _253
REMARK  102  A    between atoms: _253  and  _254
REMARK  103  A    between atoms: _254  and  _255
REMARK  104  A    between atoms: _255  and  _256
REMARK  105  A    between atoms: _260  and  _262
REMARK  106  A    between atoms: _262  and  _263
REMARK  107  A    between atoms: _262  and  _265
REMARK  108  A    between atoms: _265  and  _266
REMARK  109  A    between atoms: _271  and  _273
REMARK  110  A    between atoms: _273  and  _274
REMARK  111  A    between atoms: _273  and  _276
REMARK  112  A    between atoms: _279  and  _281
REMARK  113  A    between atoms: _281  and  _282
REMARK  114  A    between atoms: _281  and  _284
REMARK  115  A    between atoms: _284  and  _285
REMARK  116  A    between atoms: _288  and  _290
REMARK  117  A    between atoms: _290  and  _291
REMARK  118  A    between atoms: _290  and  _293
REMARK  119  A    between atoms: _296  and  _298
REMARK  120  A    between atoms: _298  and  _299
REMARK  121  A    between atoms: _298  and  _301
REMARK  122  A    between atoms: _301  and  _302
REMARK  123  A    between atoms: _305  and  _307
REMARK  124  A    between atoms: _307  and  _308
REMARK  125  A    between atoms: _311  and  _313
REMARK  126  A    between atoms: _313  and  _314
REMARK  127  A    between atoms: _313  and  _316
REMARK  128  A    between atoms: _319  and  _321
REMARK  129  A    between atoms: _321  and  _322
REMARK  130  A    between atoms: _325  and  _327
REMARK  131  A    between atoms: _327  and  _328
REMARK  132  A    between atoms: _331  and  _333
REMARK  133  A    between atoms: _333  and  _334
REMARK  134  A    between atoms: _333  and  _336
REMARK  135  A    between atoms: _336  and  _337
REMARK  136  A    between atoms: _342  and  _343
REMARK  137  A    between atoms: _345  and  _347
REMARK  138  A    between atoms: _347  and  _348
REMARK  139  A    between atoms: _347  and  _350
REMARK  140  A    between atoms: _350  and  _351
REMARK  141  A    between atoms: _351  and  _352
REMARK  142  A    between atoms: _352  and  _353
REMARK  143  A    between atoms: _353  and  _354
REMARK  144  A    between atoms: _358  and  _360
REMARK  145  A    between atoms: _360  and  _361
REMARK  146  A    between atoms: _360  and  _363
REMARK  147  A    between atoms: _363  and  _364
REMARK  148  A    between atoms: _366  and  _368
REMARK  149  A    between atoms: _368  and  _369
REMARK  150  A    between atoms: _368  and  _371
REMARK  151  A    between atoms: _371  and  _372
REMARK  152  A    between atoms: _378  and  _380
REMARK  153  A    between atoms: _380  and  _381
REMARK  154  A    between atoms: _380  and  _383
REMARK  155  A    between atoms: _383  and  _384
REMARK  156  A    between atoms: _387  and  _389
REMARK  157  A    between atoms: _389  and  _390
REMARK  158  A    between atoms: _389  and  _392
REMARK  159  A    between atoms: _395  and  _397
REMARK  160  A    between atoms: _397  and  _398
REMARK  161  A    between atoms: _397  and  _400
REMARK  162  A    between atoms: _400  and  _401
REMARK  163  A    between atoms: _401  and  _402
REMARK  164  A    between atoms: _407  and  _409
REMARK  165  A    between atoms: _409  and  _410
REMARK  166  A    between atoms: _409  and  _412
REMARK  167  A    between atoms: _415  and  _417
REMARK  168  A    between atoms: _417  and  _418
REMARK  169  A    between atoms: _420  and  _422
REMARK  170  A    between atoms: _422  and  _423
REMARK  171  A    between atoms: _422  and  _425
REMARK  172  A    between atoms: _425  and  _426
REMARK  173  A    between atoms: _429  and  _431
REMARK  174  A    between atoms: _431  and  _432
REMARK  175  A    between atoms: _431  and  _434
REMARK  176  A    between atoms: _434  and  _435
REMARK  177  A    between atoms: _440  and  _442
REMARK  178  A    between atoms: _442  and  _443
REMARK  179  A    between atoms: _446  and  _448
REMARK  180  A    between atoms: _448  and  _449
REMARK  181  A    between atoms: _448  and  _451
REMARK  182  A    between atoms: _451  and  _452
REMARK  183  A    between atoms: _457  and  _459
REMARK  184  A    between atoms: _459  and  _460
REMARK  185  A    between atoms: _459  and  _462
REMARK  186  A    between atoms: _462  and  _463
REMARK  187  A    between atoms: _473  and  _475
REMARK  188  A    between atoms: _475  and  _476
REMARK  189  A    between atoms: _475  and  _478
REMARK  190  A    between atoms: _478  and  _479
REMARK  191  A    between atoms: _482  and  _484
REMARK  192  A    between atoms: _484  and  _485
REMARK  193  A    between atoms: _488  and  _490
REMARK  194  A    between atoms: _490  and  _491
REMARK  195  A    between atoms: _490  and  _493
REMARK  196  A    between atoms: _493  and  _494
REMARK  197  A    between atoms: _496  and  _498
REMARK  198  A    between atoms: _498  and  _499
REMARK  199  A    between atoms: _498  and  _501
REMARK  200  A    between atoms: _501  and  _502
REMARK  201  A    between atoms: _502  and  _503
REMARK  202  A    between atoms: _506  and  _508
REMARK  203  A    between atoms: _508  and  _509
REMARK  204  A    between atoms: _508  and  _511
REMARK  205  A    between atoms: _511  and  _512
REMARK  206  A    between atoms: _512  and  _513
REMARK  207  A    between atoms: _516  and  _518
REMARK  208  A    between atoms: _518  and  _519
REMARK  209  A    between atoms: _518  and  _521
REMARK  210  A    between atoms: _521  and  _522
REMARK  211  A    between atoms: _522  and  _523
REMARK  212  A    between atoms: _523  and  _524
REMARK  213  A    between atoms: _533  and  _535
REMARK  214  A    between atoms: _535  and  _536
REMARK  215  A    between atoms: _539  and  _541
REMARK  216  A    between atoms: _541  and  _542
REMARK  217  A    between atoms: _541  and  _544
REMARK  218  A    between atoms: _544  and  _545
REMARK  219  A    between atoms: _545  and  _546
REMARK  220  A    between atoms: _549  and  _551
REMARK  221  A    between atoms: _551  and  _552
REMARK  222  A    between atoms: _554  and  _556
REMARK  223  A    between atoms: _556  and  _557
REMARK  224  A    between atoms: _556  and  _559
REMARK  225  A    between atoms: _559  and  _560
REMARK  226  A    between atoms: _565  and  _567
REMARK  227  A    between atoms: _567  and  _568
REMARK  228  A    between atoms: _567  and  _570
REMARK  229  A    between atoms: _570  and  _571
REMARK  230  A    between atoms: _576  and  _578
REMARK  231  A    between atoms: _578  and  _579
REMARK  232  A    between atoms: _578  and  _581
REMARK  233  A    between atoms: _581  and  _582
REMARK  234  A    between atoms: _582  and  _583
REMARK  235  A    between atoms: _585  and  _587
REMARK  236  A    between atoms: _587  and  _588
REMARK  237  A    between atoms: _587  and  _590
REMARK  238  A    between atoms: _590  and  _591
REMARK  239  A    between atoms: _591  and  _592
REMARK  240  A    between atoms: _597  and  _599
REMARK  241  A    between atoms: _599  and  _600
REMARK  242  A    between atoms: _603  and  _605
REMARK  243  A    between atoms: _605  and  _606
REMARK  244  A    between atoms: _605  and  _608
REMARK  245  A    between atoms: _608  and  _609
REMARK  246  A    between atoms: _614  and  _616
REMARK  247  A    between atoms: _616  and  _617
REMARK  248  A    between atoms: _616  and  _619
REMARK  249  A    between atoms: _619  and  _620
REMARK  250  A    between atoms: _620  and  _621
REMARK  251  A    between atoms: _623  and  _625
REMARK  252  A    between atoms: _625  and  _626
REMARK  253  A    between atoms: _625  and  _628
REMARK  254  A    between atoms: _628  and  _629
REMARK  255  A    between atoms: _629  and  _630
REMARK  256  A    between atoms: _630  and  _631
REMARK  257  A    between atoms: _640  and  _642
REMARK  258  A    between atoms: _642  and  _643
REMARK  259  A    between atoms: _642  and  _645
REMARK  260  A    between atoms: _645  and  _646
REMARK  261  A    between atoms: _646  and  _647
REMARK  262  A    between atoms: _647  and  _648
REMARK  263  A    between atoms: _648  and  _649
REMARK  264  A    between atoms: _653  and  _655
REMARK  265  A    between atoms: _655  and  _656
REMARK  266  A    between atoms: _655  and  _658
REMARK  267  A    between atoms: _658  and  _659
REMARK  268  A    between atoms: _661  and  _663
REMARK  269  A    between atoms: _663  and  _664
REMARK  270  A    between atoms: _663  and  _666
REMARK  271  A    between atoms: _666  and  _667
REMARK  272  A    between atoms: _667  and  _668
REMARK  273  A    between atoms: _668  and  _669
REMARK  274  A    between atoms: _678  and  _680
REMARK  275  A    between atoms: _680  and  _681
REMARK  276  A    between atoms: _680  and  _683
REMARK  277  A    between atoms: _683  and  _684
REMARK  278  A    between atoms: _684  and  _685
REMARK  279  A    between atoms: _685  and  _686
REMARK  280  A    between atoms: _686  and  _687
REMARK  281  A    between atoms: _691  and  _693
REMARK  282  A    between atoms: _693  and  _694
REMARK  283  A    between atoms: _693  and  _696
REMARK  284  A    between atoms: _696  and  _697
REMARK  285  A    between atoms: _700  and  _702
REMARK  286  A    between atoms: _702  and  _703
REMARK  287  A    between atoms: _702  and  _705
REMARK  288  A    between atoms: _705  and  _706
REMARK                            x       y       z     vdW  Elec       q    Type
REMARK                         _______ _______ _______ _____ _____    ______ ____
ROOT
ATOM      1  CA  LEU A   1      15.015  11.944  36.441  0.00  0.00    +0.133 C 
ENDROOT
BRANCH   1   2
ATOM      2  N   LEU A   1      13.576  11.901  36.246  0.00  0.00    -0.239 NA
ATOM      3  H   LEU A   1      12.990  11.346  36.902  0.00  0.00    +0.142 HD
ENDBRANCH   1   2
BRANCH   1   4
ATOM      4  C   LEU A   1      15.687  11.350  35.213  0.00  0.00    +0.224 C 
ATOM      5  O   LEU A   1      15.231  10.337  34.685  0.00  0.00    -0.287 OA
ENDBRANCH   1   4
BRANCH   1   6
ATOM      6  CB  LEU A   1      15.402  11.122  37.666  0.00  0.00    +0.025 C 
BRANCH   6   7
ATOM      7  CG  LEU A   1      16.634  11.654  38.388  0.00  0.00    +0.002 C 
ATOM      8  CD2 LEU A   1      17.106  10.692  39.463  0.00  0.00    +0.000 C 
ATOM      9  CD1 LEU A   1      16.304  13.015  38.980  0.00  0.00    +0.000 C 
ENDBRANCH   6   7
ENDBRANCH   1   6
TORSDOF 4
REMARK  Name = ../refined-set-2016/3t6b/3t6b_pocket.pdb
REMARK  288 active torsions:
REMARK  status: ('A' for Active; 'I' for Inactive)
REMARK    1  A    between atoms: _1  and  _3
REMARK    2  A    between atoms: _3  and  _4
REMARK    3  A    between atoms: _6  and  _8
REMARK    4  A    between atoms: _8  and  _9
REMARK    5  A    between atoms: _8  and  _11
REMARK    6  A    between atoms: _11  and  _12
REMARK    7  A    between atoms: _14  and  _16
REMARK    8  A    between atoms: _16  and  _17
REMARK    9  A    between atoms: _16  and  _19
REMARK   10  A    between atoms: _19  and  _20
REMARK   11  A    between atoms: _23  and  _25
REMARK   12  A    between atoms: _25  and  _26
REMARK   13  A    between atoms: _25  and  _28
REMARK   14  A    between atoms: _28  and  _29
REMARK   15  A    between atoms: _31  and  _33
REMARK   16  A    between atoms: _33  and  _34
REMARK   17  A    between atoms: _33  and  _36
REMARK   18  A    between atoms: _36  and  _37
REMARK   19  A    between atoms: _43  and  _45
REMARK   20  A    between atoms: _45  and  _46
REMARK   21  A    between atoms: _45  and  _48
REMARK   22  A    between atoms: _48  and  _49
REMARK   23  A    between atoms: _54  and  _55
REMARK   24  A    between atoms: _57  and  _59
REMARK   25  A    between atoms: _59  and  _60
REMARK   26  A    between atoms: _59  and  _62
REMARK   27  A    between atoms: _62  and  _63
REMARK   28  A    between atoms: _66  and  _68
REMARK   29  A    between atoms: _68  and  _69
REMARK   30  A    between atoms: _68  and  _71
REMARK   31  A    between atoms: _71  and  _72
REMARK   32  A    between atoms: _72  and  _73
REMARK   33  A    between atoms: _76  and  _78
REMARK   34  A    between atoms: _78  and  _79
REMARK   35  A    between atoms: _78  and  _81
REMARK   36  A    between atoms: _81  and  _82
REMARK   37  A    between atoms: _84  and  _86
REMARK   38  A    between atoms: _86  and  _87
REMARK   39  A    between atoms: _86  and  _89
REMARK   40  A    between atoms: _89  and  _90
REMARK   41  A    between atoms: _95  and  _96
REMARK   42  A    between atoms: _98  and  _100
REMARK   43  A    between atoms: _100  and  _101
REMARK   44  A    between atoms: _100  and  _103
REMARK   45  A    between atoms: _103  and  _104
REMARK   46  A    between atoms: _104  and  _105
REMARK   47  A    between atoms: _108  and  _110
REMARK   48  A    between atoms: _110  and  _111
REMARK   49  A    between atoms: _110  and  _113
REMARK   50  A    between atoms: _113  and  _114
REMARK   51  A    between atoms: _120  and  _122
REMARK   52  A    between atoms: _122  and  _123
REMARK   53  A    between atoms: _122  and  _125
REMARK   54  A    between atoms: _125  and  _126
REMARK   55  A    between atoms: _128  and  _130
REMARK   56  A    between atoms: _130  and  _131
REMARK   57  A    between atoms: _133  and  _135
REMARK   58  A    between atoms: _135  and  _136
REMARK   59  A    between atoms: _135  and  _138
REMARK   60  A    between atoms: _138  and  _139
REMARK   61  A    between atoms: _143  and  _144
REMARK   62  A    between atoms: _149  and  _151
REMARK   63  A    between atoms: _151  and  _152
REMARK   64  A    between atoms: _155  and  _157
REMARK   65  A    between atoms: _157  and  _158
REMARK   66  A    between atoms: _160  and  _162
REMARK   67  A    between atoms: _162  and  _163
REMARK   68  A    between atoms: _162  and  _165
REMARK   69  A    between atoms: _165  and  _166
REMARK   70  A    between atoms: _169  and  _171
REMARK   71  A    between atoms: _171  and  _172
REMARK   72  A    between atoms: _171  and  _174
REMARK   73  A    between atoms: _174  and  _175
REMARK   74  A    between atoms: _180  and  _182
REMARK   75  A    between atoms: _182  and  _183
REMARK   76  A    between atoms: _182  and  _185
REMARK   77  A    between atoms: _185  and  _186
REMARK   78  A    between atoms: _190  and  _191
REMARK   79  A    between atoms: _196  and  _198
REMARK   80  A    between atoms: _198  and  _199
REMARK   81  A    between atoms: _198  and  _201
REMARK   82  A    between atoms: _201  and  _202
REMARK   83  A    between atoms: _207  and  _209
REMARK   84  A    between atoms: _209  and  _210
REMARK   85  A    between atoms: _209  and  _212
REMARK   86  A    between atoms: _212  and  _213
REMARK   87  A    between atoms: _218  and  _219
REMARK   88  A    between atoms: _221  and  _223
REMARK   89  A    between atoms: _223  and  _224
REMARK   90  A    between atoms: _223  and  _226
REMARK   91  A    between atoms: _226  and  _227
REMARK   92  A    between atoms: _230  and  _232
REMARK   93  A    between atoms: _232  and  _233
REMARK   94  A    between atoms: _232  and  _235
REMARK   95  A    between atoms: _235  and  _236
REMARK   96  A    between atoms: _236  and  _237
REMARK   97  A    between atoms: _237  and  _238
REMARK   98  A    between atoms: _247  and  _249
REMARK   99  A    between atoms: _249  and  _250
REMARK  100  A    between atoms: _249  and  _252
REMARK  101  A    between atoms: _252  and  _253
REMARK  102  A    between atoms: _253  and  _254
REMARK  103  A    between atoms: _254  and  _255
REMARK  104  A    between atoms: _255  and  _256
REMARK  105  A    between atoms: _260  and  _262
REMARK  106  A    between atoms: _262  and  _263
REMARK  107  A    between atoms: _262  and  _265
REMARK  108  A    between atoms: _265  and  _266
REMARK  109  A    between atoms: _271  and  _273
REMARK  110  A    between atoms: _273  and  _274
REMARK  111  A    between atoms: _273  and  _276
REMARK  112  A    between atoms: _279  and  _281
REMARK  113  A    between atoms: _281  and  _282
REMARK  114  A    between atoms: _281  and  _284
REMARK  115  A    between atoms: _284  and  _285
REMARK  116  A    between atoms: _288  and  _290
REMARK  117  A    between atoms: _290  and  _291
REMARK  118  A    between atoms: _290  and  _293
REMARK  119  A    between atoms: _296  and  _298
REMARK  120  A    between atoms: _298  and  _299
REMARK  121  A    between atoms: _298  and  _301
REMARK  122  A    between atoms: _301  and  _302
REMARK  123  A    between atoms: _305  and  _307
REMARK  124  A    between atoms: _307  and  _308
REMARK  125  A    between atoms: _311  and  _313
REMARK  126  A    between atoms: _313  and  _314
REMARK  127  A    between atoms: _313  and  _316
REMARK  128  A    between atoms: _319  and  _321
REMARK  129  A    between atoms: _321  and  _322
REMARK  130  A    between atoms: _325  and  _327
REMARK  131  A    between atoms: _327  and  _328
REMARK  132  A    between atoms: _331  and  _333
REMARK  133  A    between atoms: _333  and  _334
REMARK  134  A    between atoms: _333  and  _336
REMARK  135  A    between atoms: _336  and  _337
REMARK  136  A    between atoms: _342  and  _343
REMARK  137  A    between atoms: _345  and  _347
REMARK  138  A    between atoms: _347  and  _348
REMARK  139  A    between atoms: _347  and  _350
REMARK  140  A    between atoms: _350  and  _351
REMARK  141  A    between atoms: _351  and  _352
REMARK  142  A    between atoms: _352  and  _353
REMARK  143  A    between atoms: _353  and  _354
REMARK  144  A    between atoms: _358  and  _360
REMARK  145  A    between atoms: _360  and  _361
REMARK  146  A    between atoms: _360  and  _363
REMARK  147  A    between atoms: _363  and  _364
REMARK  148  A    between atoms: _366  and  _368
REMARK  149  A    between atoms: _368  and  _369
REMARK  150  A    between atoms: _368  and  _371
REMARK  151  A    between atoms: _371  and  _372
REMARK  152  A    between atoms: _378  and  _380
REMARK  153  A    between atoms: _380  and  _381
REMARK  154  A    between atoms: _380  and  _383
REMARK  155  A    between atoms: _383  and  _384
REMARK  156  A    between atoms: _387  and  _389
REMARK  157  A    between atoms: _389  and  _390
REMARK  158  A    between atoms: _389  and  _392
REMARK  159  A    between atoms: _395  and  _397
REMARK  160  A    between atoms: _397  and  _398
REMARK  161  A    between atoms: _397  and  _400
REMARK  162  A    between atoms: _400  and  _401
REMARK  163  A    between atoms: _401  and  _402
REMARK  164  A    between atoms: _407  and  _409
REMARK  165  A    between atoms: _409  and  _410
REMARK  166  A    between atoms: _409  and  _412
REMARK  167  A    between atoms: _415  and  _417
REMARK  168  A    between atoms: _417  and  _418
REMARK  169  A    between atoms: _420  and  _422
REMARK  170  A    between atoms: _422  and  _423
REMARK  171  A    between atoms: _422  and  _425
REMARK  172  A    between atoms: _425  and  _426
REMARK  173  A    between atoms: _429  and  _431
REMARK  174  A    between atoms: _431  and  _432
REMARK  175  A    between atoms: _431  and  _434
REMARK  176  A    between atoms: _434  and  _435
REMARK  177  A    between atoms: _440  and  _442
REMARK  178  A    between atoms: _442  and  _443
REMARK  179  A    between atoms: _446  and  _448
REMARK  180  A    between atoms: _448  and  _449
REMARK  181  A    between atoms: _448  and  _451
REMARK  182  A    between atoms: _451  and  _452
REMARK  183  A    between atoms: _457  and  _459
REMARK  184  A    between atoms: _459  and  _460
REMARK  185  A    between atoms: _459  and  _462
REMARK  186  A    between atoms: _462  and  _463
REMARK  187  A    between atoms: _473  and  _475
REMARK  188  A    between atoms: _475  and  _476
REMARK  189  A    between atoms: _475  and  _478
REMARK  190  A    between atoms: _478  and  _479
REMARK  191  A    between atoms: _482  and  _484
REMARK  192  A    between atoms: _484  and  _485
REMARK  193  A    between atoms: _488  and  _490
REMARK  194  A    between atoms: _490  and  _491
REMARK  195  A    between atoms: _490  and  _493
REMARK  196  A    between atoms: _493  and  _494
REMARK  197  A    between atoms: _496  and  _498
REMARK  198  A    between atoms: _498  and  _499
REMARK  199  A    between atoms: _498  and  _501
REMARK  200  A    between atoms: _501  and  _502
REMARK  201  A    between atoms: _502  and  _503
REMARK  202  A    between atoms: _506  and  _508
REMARK  203  A    between atoms: _508  and  _509
REMARK  204  A    between atoms: _508  and  _511
REMARK  205  A    between atoms: _511  and  _512
REMARK  206  A    between atoms: _512  and  _513
REMARK  207  A    between atoms: _516  and  _518
REMARK  208  A    between atoms: _518  and  _519
REMARK  209  A    between atoms: _518  and  _521
REMARK  210  A    between atoms: _521  and  _522
REMARK  211  A    between atoms: _522  and  _523
REMARK  212  A    between atoms: _523  and  _524
REMARK  213  A    between atoms: _533  and  _535
REMARK  214  A    between atoms: _535  and  _536
REMARK  215  A    between atoms: _539  and  _541
REMARK  216  A    between atoms: _541  and  _542
REMARK  217  A    between atoms: _541  and  _544
REMARK  218  A    between atoms: _544  and  _545
REMARK  219  A    between atoms: _545  and  _546
REMARK  220  A    between atoms: _549  and  _551
REMARK  221  A    between atoms: _551  and  _552
REMARK  222  A    between atoms: _554  and  _556
REMARK  223  A    between atoms: _556  and  _557
REMARK  224  A    between atoms: _556  and  _559
REMARK  225  A    between atoms: _559  and  _560
REMARK  226  A    between atoms: _565  and  _567
REMARK  227  A    between atoms: _567  and  _568
REMARK  228  A    between atoms: _567  and  _570
REMARK  229  A    between atoms: _570  and  _571
REMARK  230  A    between atoms: _576  and  _578
REMARK  231  A    between atoms: _578  and  _579
REMARK  232  A    between atoms: _578  and  _581
REMARK  233  A    between atoms: _581  and  _582
REMARK  234  A    between atoms: _582  and  _583
REMARK  235  A    between atoms: _585  and  _587
REMARK  236  A    between atoms: _587  and  _588
REMARK  237  A    between atoms: _587  and  _590
REMARK  238  A    between atoms: _590  and  _591
REMARK  239  A    between atoms: _591  and  _592
REMARK  240  A    between atoms: _597  and  _599
REMARK  241  A    between atoms: _599  and  _600
REMARK  242  A    between atoms: _603  and  _605
REMARK  243  A    between atoms: _605  and  _606
REMARK  244  A    between atoms: _605  and  _608
REMARK  245  A    between atoms: _608  and  _609
REMARK  246  A    between atoms: _614  and  _616
REMARK  247  A    between atoms: _616  and  _617
REMARK  248  A    between atoms: _616  and  _619
REMARK  249  A    between atoms: _619  and  _620
REMARK  250  A    between atoms: _620  and  _621
REMARK  251  A    between atoms: _623  and  _625
REMARK  252  A    between atoms: _625  and  _626
REMARK  253  A    between atoms: _625  and  _628
REMARK  254  A    between atoms: _628  and  _629
REMARK  255  A    between atoms: _629  and  _630
REMARK  256  A    between atoms: _630  and  _631
REMARK  257  A    between atoms: _640  and  _642
REMARK  258  A    between atoms: _642  and  _643
REMARK  259  A    between atoms: _642  and  _645
REMARK  260  A    between atoms: _645  and  _646
REMARK  261  A    between atoms: _646  and  _647
REMARK  262  A    between atoms: _647  and  _648
REMARK  263  A    between atoms: _648  and  _649
REMARK  264  A    between atoms: _653  and  _655
REMARK  265  A    between atoms: _655  and  _656
REMARK  266  A    between atoms: _655  and  _658
REMARK  267  A    between atoms: _658  and  _659
REMARK  268  A    between atoms: _661  and  _663
REMARK  269  A    between atoms: _663  and  _664
REMARK  270  A    between atoms: _663  and  _666
REMARK  271  A    between atoms: _666  and  _667
REMARK  272  A    between atoms: _667  and  _668
REMARK  273  A    between atoms: _668  and  _669
REMARK  274  A    between atoms: _678  and  _680
REMARK  275  A    between atoms: _680  and  _681
REMARK  276  A    between atoms: _680  and  _683
REMARK  277  A    between atoms: _683  and  _684
REMARK  278  A    between atoms: _684  and  _685
REMARK  279  A    between atoms: _685  and  _686
REMARK  280  A    between atoms: _686  and  _687
REMARK  281  A    between atoms: _691  and  _693
REMARK  282  A    between atoms: _693  and  _694
REMARK  283  A    between atoms: _693  and  _696
REMARK  284  A    between atoms: _696  and  _697
REMARK  285  A    between atoms: _700  and  _702
REMARK  286  A    between atoms: _702  and  _703
REMARK  287  A    between atoms: _702  and  _705
REMARK  288  A    between atoms: _705  and  _706
REMARK                            x       y       z     vdW  Elec       q    Type
REMARK                         _______ _______ _______ _____ _____    ______ ____
ROOT
ATOM      1  CA  SER A   1       6.040   9.246  45.727  0.00  0.00    +0.163 C 
ENDROOT
BRANCH   1   2
ATOM      2  N   SER A   1       4.975   8.256  45.651  0.00  0.00    -0.237 NA
ATOM      3  H   SER A   1       4.069   8.532  45.222  0.00  0.00    +0.142 HD
ENDBRANCH   1   2
BRANCH   1   4
ATOM      4  CB  SER A   1       6.532   9.499  47.150  0.00  0.00    +0.227 C 
ATOM      5  OG  SER A   1       7.732   9.628  47.392  0.00  0.00    -0.287 OA
ENDBRANCH   1   4
BRANCH   1   6
ATOM      6  C   SER A   1       5.572  10.560  45.086  0.00  0.00    +0.162 C 
BRANCH   6   7
ATOM      7  O   SER A   1       6.294  11.676  45.582  0.00  0.00    -0.380 OA
ATOM      8  H   SER A   1       5.964  12.501  45.146  0.00  0.00    +0.211 HD
ENDBRANCH   6   7
ENDBRANCH   1   6
TORSDOF 4
REMARK  Name = ../refined-set-2016/3t6b/3t6b_pocket.pdb
REMARK  288 active torsions:
REMARK  status: ('A' for Active; 'I' for Inactive)
REMARK    1  A    between atoms: _1  and  _3
REMARK    2  A    between atoms: _3  and  _4
REMARK    3  A    between atoms: _6  and  _8
REMARK    4  A    between atoms: _8  and  _9
REMARK    5  A    between atoms: _8  and  _11
REMARK    6  A    between atoms: _11  and  _12
REMARK    7  A    between atoms: _14  and  _16
REMARK    8  A    between atoms: _16  and  _17
REMARK    9  A    between atoms: _16  and  _19
REMARK   10  A    between atoms: _19  and  _20
REMARK   11  A    between atoms: _23  and  _25
REMARK   12  A    between atoms: _25  and  _26
REMARK   13  A    between atoms: _25  and  _28
REMARK   14  A    between atoms: _28  and  _29
REMARK   15  A    between atoms: _31  and  _33
REMARK   16  A    between atoms: _33  and  _34
REMARK   17  A    between atoms: _33  and  _36
REMARK   18  A    between atoms: _36  and  _37
REMARK   19  A    between atoms: _43  and  _45
REMARK   20  A    between atoms: _45  and  _46
REMARK   21  A    between atoms: _45  and  _48
REMARK   22  A    between atoms: _48  and  _49
REMARK   23  A    between atoms: _54  and  _55
REMARK   24  A    between atoms: _57  and  _59
REMARK   25  A    between atoms: _59  and  _60
REMARK   26  A    between atoms: _59  and  _62
REMARK   27  A    between atoms: _62  and  _63
REMARK   28  A    between atoms: _66  and  _68
REMARK   29  A    between atoms: _68  and  _69
REMARK   30  A    between atoms: _68  and  _71
REMARK   31  A    between atoms: _71  and  _72
REMARK   32  A    between atoms: _72  and  _73
REMARK   33  A    between atoms: _76  and  _78
REMARK   34  A    between atoms: _78  and  _79
REMARK   35  A    between atoms: _78  and  _81
REMARK   36  A    between atoms: _81  and  _82
REMARK   37  A    between atoms: _84  and  _86
REMARK   38  A    between atoms: _86  and  _87
REMARK   39  A    between atoms: _86  and  _89
REMARK   40  A    between atoms: _89  and  _90
REMARK   41  A    between atoms: _95  and  _96
REMARK   42  A    between atoms: _98  and  _100
REMARK   43  A    between atoms: _100  and  _101
REMARK   44  A    between atoms: _100  and  _103
REMARK   45  A    between atoms: _103  and  _104
REMARK   46  A    between atoms: _104  and  _105
REMARK   47  A    between atoms: _108  and  _110
REMARK   48  A    between atoms: _110  and  _111
REMARK   49  A    between atoms: _110  and  _113
REMARK   50  A    between atoms: _113  and  _114
REMARK   51  A    between atoms: _120  and  _122
REMARK   52  A    between atoms: _122  and  _123
REMARK   53  A    between atoms: _122  and  _125
REMARK   54  A    between atoms: _125  and  _126
REMARK   55  A    between atoms: _128  and  _130
REMARK   56  A    between atoms: _130  and  _131
REMARK   57  A    between atoms: _133  and  _135
REMARK   58  A    between atoms: _135  and  _136
REMARK   59  A    between atoms: _135  and  _138
REMARK   60  A    between atoms: _138  and  _139
REMARK   61  A    between atoms: _143  and  _144
REMARK   62  A    between atoms: _149  and  _151
REMARK   63  A    between atoms: _151  and  _152
REMARK   64  A    between atoms: _155  and  _157
REMARK   65  A    between atoms: _157  and  _158
REMARK   66  A    between atoms: _160  and  _162
REMARK   67  A    between atoms: _162  and  _163
REMARK   68  A    between atoms: _162  and  _165
REMARK   69  A    between atoms: _165  and  _166
REMARK   70  A    between atoms: _169  and  _171
REMARK   71  A    between atoms: _171  and  _172
REMARK   72  A    between atoms: _171  and  _174
REMARK   73  A    between atoms: _174  and  _175
REMARK   74  A    between atoms: _180  and  _182
REMARK   75  A    between atoms: _182  and  _183
REMARK   76  A    between atoms: _182  and  _185
REMARK   77  A    between atoms: _185  and  _186
REMARK   78  A    between atoms: _190  and  _191
REMARK   79  A    between atoms: _196  and  _198
REMARK   80  A    between atoms: _198  and  _199
REMARK   81  A    between atoms: _198  and  _201
REMARK   82  A    between atoms: _201  and  _202
REMARK   83  A    between atoms: _207  and  _209
REMARK   84  A    between atoms: _209  and  _210
REMARK   85  A    between atoms: _209  and  _212
REMARK   86  A    between atoms: _212  and  _213
REMARK   87  A    between atoms: _218  and  _219
REMARK   88  A    between atoms: _221  and  _223
REMARK   89  A    between atoms: _223  and  _224
REMARK   90  A    between atoms: _223  and  _226
REMARK   91  A    between atoms: _226  and  _227
REMARK   92  A    between atoms: _230  and  _232
REMARK   93  A    between atoms: _232  and  _233
REMARK   94  A    between atoms: _232  and  _235
REMARK   95  A    between atoms: _235  and  _236
REMARK   96  A    between atoms: _236  and  _237
REMARK   97  A    between atoms: _237  and  _238
REMARK   98  A    between atoms: _247  and  _249
REMARK   99  A    between atoms: _249  and  _250
REMARK  100  A    between atoms: _249  and  _252
REMARK  101  A    between atoms: _252  and  _253
REMARK  102  A    between atoms: _253  and  _254
REMARK  103  A    between atoms: _254  and  _255
REMARK  104  A    between atoms: _255  and  _256
REMARK  105  A    between atoms: _260  and  _262
REMARK  106  A    between atoms: _262  and  _263
REMARK  107  A    between atoms: _262  and  _265
REMARK  108  A    between atoms: _265  and  _266
REMARK  109  A    between atoms: _271  and  _273
REMARK  110  A    between atoms: _273  and  _274
REMARK  111  A    between atoms: _273  and  _276
REMARK  112  A    between atoms: _279  and  _281
REMARK  113  A    between atoms: _281  and  _282
REMARK  114  A    between atoms: _281  and  _284
REMARK  115  A    between atoms: _284  and  _285
REMARK  116  A    between atoms: _288  and  _290
REMARK  117  A    between atoms: _290  and  _291
REMARK  118  A    between atoms: _290  and  _293
REMARK  119  A    between atoms: _296  and  _298
REMARK  120  A    between atoms: _298  and  _299
REMARK  121  A    between atoms: _298  and  _301
REMARK  122  A    between atoms: _301  and  _302
REMARK  123  A    between atoms: _305  and  _307
REMARK  124  A    between atoms: _307  and  _308
REMARK  125  A    between atoms: _311  and  _313
REMARK  126  A    between atoms: _313  and  _314
REMARK  127  A    between atoms: _313  and  _316
REMARK  128  A    between atoms: _319  and  _321
REMARK  129  A    between atoms: _321  and  _322
REMARK  130  A    between atoms: _325  and  _327
REMARK  131  A    between atoms: _327  and  _328
REMARK  132  A    between atoms: _331  and  _333
REMARK  133  A    between atoms: _333  and  _334
REMARK  134  A    between atoms: _333  and  _336
REMARK  135  A    between atoms: _336  and  _337
REMARK  136  A    between atoms: _342  and  _343
REMARK  137  A    between atoms: _345  and  _347
REMARK  138  A    between atoms: _347  and  _348
REMARK  139  A    between atoms: _347  and  _350
REMARK  140  A    between atoms: _350  and  _351
REMARK  141  A    between atoms: _351  and  _352
REMARK  142  A    between atoms: _352  and  _353
REMARK  143  A    between atoms: _353  and  _354
REMARK  144  A    between atoms: _358  and  _360
REMARK  145  A    between atoms: _360  and  _361
REMARK  146  A    between atoms: _360  and  _363
REMARK  147  A    between atoms: _363  and  _364
REMARK  148  A    between atoms: _366  and  _368
REMARK  149  A    between atoms: _368  and  _369
REMARK  150  A    between atoms: _368  and  _371
REMARK  151  A    between atoms: _371  and  _372
REMARK  152  A    between atoms: _378  and  _380
REMARK  153  A    between atoms: _380  and  _381
REMARK  154  A    between atoms: _380  and  _383
REMARK  155  A    between atoms: _383  and  _384
REMARK  156  A    between atoms: _387  and  _389
REMARK  157  A    between atoms: _389  and  _390
REMARK  158  A    between atoms: _389  and  _392
REMARK  159  A    between atoms: _395  and  _397
REMARK  160  A    between atoms: _397  and  _398
REMARK  161  A    between atoms: _397  and  _400
REMARK  162  A    between atoms: _400  and  _401
REMARK  163  A    between atoms: _401  and  _402
REMARK  164  A    between atoms: _407  and  _409
REMARK  165  A    between atoms: _409  and  _410
REMARK  166  A    between atoms: _409  and  _412
REMARK  167  A    between atoms: _415  and  _417
REMARK  168  A    between atoms: _417  and  _418
REMARK  169  A    between atoms: _420  and  _422
REMARK  170  A    between atoms: _422  and  _423
REMARK  171  A    between atoms: _422  and  _425
REMARK  172  A    between atoms: _425  and  _426
REMARK  173  A    between atoms: _429  and  _431
REMARK  174  A    between atoms: _431  and  _432
REMARK  175  A    between atoms: _431  and  _434
REMARK  176  A    between atoms: _434  and  _435
REMARK  177  A    between atoms: _440  and  _442
REMARK  178  A    between atoms: _442  and  _443
REMARK  179  A    between atoms: _446  and  _448
REMARK  180  A    between atoms: _448  and  _449
REMARK  181  A    between atoms: _448  and  _451
REMARK  182  A    between atoms: _451  and  _452
REMARK  183  A    between atoms: _457  and  _459
REMARK  184  A    between atoms: _459  and  _460
REMARK  185  A    between atoms: _459  and  _462
REMARK  186  A    between atoms: _462  and  _463
REMARK  187  A    between atoms: _473  and  _475
REMARK  188  A    between atoms: _475  and  _476
REMARK  189  A    between atoms: _475  and  _478
REMARK  190  A    between atoms: _478  and  _479
REMARK  191  A    between atoms: _482  and  _484
REMARK  192  A    between atoms: _484  and  _485
REMARK  193  A    between atoms: _488  and  _490
REMARK  194  A    between atoms: _490  and  _491
REMARK  195  A    between atoms: _490  and  _493
REMARK  196  A    between atoms: _493  and  _494
REMARK  197  A    between atoms: _496  and  _498
REMARK  198  A    between atoms: _498  and  _499
REMARK  199  A    between atoms: _498  and  _501
REMARK  200  A    between atoms: _501  and  _502
REMARK  201  A    between atoms: _502  and  _503
REMARK  202  A    between atoms: _506  and  _508
REMARK  203  A    between atoms: _508  and  _509
REMARK  204  A    between atoms: _508  and  _511
REMARK  205  A    between atoms: _511  and  _512
REMARK  206  A    between atoms: _512  and  _513
REMARK  207  A    between atoms: _516  and  _518
REMARK  208  A    between atoms: _518  and  _519
REMARK  209  A    between atoms: _518  and  _521
REMARK  210  A    between atoms: _521  and  _522
REMARK  211  A    between atoms: _522  and  _523
REMARK  212  A    between atoms: _523  and  _524
REMARK  213  A    between atoms: _533  and  _535
REMARK  214  A    between atoms: _535  and  _536
REMARK  215  A    between atoms: _539  and  _541
REMARK  216  A    between atoms: _541  and  _542
REMARK  217  A    between atoms: _541  and  _544
REMARK  218  A    between atoms: _544  and  _545
REMARK  219  A    between atoms: _545  and  _546
REMARK  220  A    between atoms: _549  and  _551
REMARK  221  A    between atoms: _551  and  _552
REMARK  222  A    between atoms: _554  and  _556
REMARK  223  A    between atoms: _556  and  _557
REMARK  224  A    between atoms: _556  and  _559
REMARK  225  A    between atoms: _559  and  _560
REMARK  226  A    between atoms: _565  and  _567
REMARK  227  A    between atoms: _567  and  _568
REMARK  228  A    between atoms: _567  and  _570
REMARK  229  A    between atoms: _570  and  _571
REMARK  230  A    between atoms: _576  and  _578
REMARK  231  A    between atoms: _578  and  _579
REMARK  232  A    between atoms: _578  and  _581
REMARK  233  A    between atoms: _581  and  _582
REMARK  234  A    between atoms: _582  and  _583
REMARK  235  A    between atoms: _585  and  _587
REMARK  236  A    between atoms: _587  and  _588
REMARK  237  A    between atoms: _587  and  _590
REMARK  238  A    between atoms: _590  and  _591
REMARK  239  A    between atoms: _591  and  _592
REMARK  240  A    between atoms: _597  and  _599
REMARK  241  A    between atoms: _599  and  _600
REMARK  242  A    between atoms: _603  and  _605
REMARK  243  A    between atoms: _605  and  _606
REMARK  244  A    between atoms: _605  and  _608
REMARK  245  A    between atoms: _608  and  _609
REMARK  246  A    between atoms: _614  and  _616
REMARK  247  A    between atoms: _616  and  _617
REMARK  248  A    between atoms: _616  and  _619
REMARK  249  A    between atoms: _619  and  _620
REMARK  250  A    between atoms: _620  and  _621
REMARK  251  A    between atoms: _623  and  _625
REMARK  252  A    between atoms: _625  and  _626
REMARK  253  A    between atoms: _625  and  _628
REMARK  254  A    between atoms: _628  and  _629
REMARK  255  A    between atoms: _629  and  _630
REMARK  256  A    between atoms: _630  and  _631
REMARK  257  A    between atoms: _640  and  _642
REMARK  258  A    between atoms: _642  and  _643
REMARK  259  A    between atoms: _642  and  _645
REMARK  260  A    between atoms: _645  and  _646
REMARK  261  A    between atoms: _646  and  _647
REMARK  262  A    between atoms: _647  and  _648
REMARK  263  A    between atoms: _648  and  _649
REMARK  264  A    between atoms: _653  and  _655
REMARK  265  A    between atoms: _655  and  _656
REMARK  266  A    between atoms: _655  and  _658
REMARK  267  A    between atoms: _658  and  _659
REMARK  268  A    between atoms: _661  and  _663
REMARK  269  A    between atoms: _663  and  _664
REMARK  270  A    between atoms: _663  and  _666
REMARK  271  A    between atoms: _666  and  _667
REMARK  272  A    between atoms: _667  and  _668
REMARK  273  A    between atoms: _668  and  _669
REMARK  274  A    between atoms: _678  and  _680
REMARK  275  A    between atoms: _680  and  _681
REMARK  276  A    between atoms: _680  and  _683
REMARK  277  A    between atoms: _683  and  _684
REMARK  278  A    between atoms: _684  and  _685
REMARK  279  A    between atoms: _685  and  _686
REMARK  280  A    between atoms: _686  and  _687
REMARK  281  A    between atoms: _691  and  _693
REMARK  282  A    between atoms: _693  and  _694
REMARK  283  A    between atoms: _693  and  _696
REMARK  284  A    between atoms: _696  and  _697
REMARK  285  A    between atoms: _700  and  _702
REMARK  286  A    between atoms: _702  and  _703
REMARK  287  A    between atoms: _702  and  _705
REMARK  288  A    between atoms: _705  and  _706
REMARK                            x       y       z     vdW  Elec       q    Type
REMARK                         _______ _______ _______ _____ _____    ______ ____
ROOT
ATOM      1  CB  PHE A   1       8.246  18.943  51.251  0.00  0.00    +0.051 C 
ENDROOT
BRANCH   1   2
ATOM      2  CG  PHE A   1       9.097  20.182  51.367  0.00  0.00    -0.020 A 
ATOM      3  CD2 PHE A   1      10.476  20.087  51.467  0.00  0.00    -0.004 A 
ATOM      4  CE2 PHE A   1      11.260  21.225  51.570  0.00  0.00    -0.000 A 
ATOM      5  CZ  PHE A   1      10.671  22.476  51.561  0.00  0.00    -0.000 A 
ATOM      6  CE1 PHE A   1       9.302  22.583  51.452  0.00  0.00    -0.000 A 
ATOM      7  CD1 PHE A   1       8.520  21.440  51.355  0.00  0.00    -0.004 A 
ENDBRANCH   1   2
BRANCH   1   8
ATOM      8  CA  PHE A   1       7.865  18.308  52.594  0.00  0.00    +0.137 C 
BRANCH   8   9
ATOM      9  N   PHE A   1       7.537  16.913  52.373  0.00  0.00    -0.239 NA
ATOM     10  H   PHE A   1       6.982  16.645  51.535  0.00  0.00    +0.142 HD
ENDBRANCH   8   9
BRANCH   8  11
ATOM     11  C   PHE A   1       6.620  18.977  53.171  0.00  0.00    +0.224 C 
ATOM     12  O   PHE A   1       5.676  19.298  52.443  0.00  0.00    -0.287 OA
ENDBRANCH   8  11
ENDBRANCH   1   8
TORSDOF 4
REMARK  Name = ../refined-set-2016/3t6b/3t6b_pocket.pdb
REMARK  288 active torsions:
REMARK  status: ('A' for Active; 'I' for Inactive)
REMARK    1  A    between atoms: _1  and  _3
REMARK    2  A    between atoms: _3  and  _4
REMARK    3  A    between atoms: _6  and  _8
REMARK    4  A    between atoms: _8  and  _9
REMARK    5  A    between atoms: _8  and  _11
REMARK    6  A    between atoms: _11  and  _12
REMARK    7  A    between atoms: _14  and  _16
REMARK    8  A    between atoms: _16  and  _17
REMARK    9  A    between atoms: _16  and  _19
REMARK   10  A    between atoms: _19  and  _20
REMARK   11  A    between atoms: _23  and  _25
REMARK   12  A    between atoms: _25  and  _26
REMARK   13  A    between atoms: _25  and  _28
REMARK   14  A    between atoms: _28  and  _29
REMARK   15  A    between atoms: _31  and  _33
REMARK   16  A    between atoms: _33  and  _34
REMARK   17  A    between atoms: _33  and  _36
REMARK   18  A    between atoms: _36  and  _37
REMARK   19  A    between atoms: _43  and  _45
REMARK   20  A    between atoms: _45  and  _46
REMARK   21  A    between atoms: _45  and  _48
REMARK   22  A    between atoms: _48  and  _49
REMARK   23  A    between atoms: _54  and  _55
REMARK   24  A    between atoms: _57  and  _59
REMARK   25  A    between atoms: _59  and  _60
REMARK   26  A    between atoms: _59  and  _62
REMARK   27  A    between atoms: _62  and  _63
REMARK   28  A    between atoms: _66  and  _68
REMARK   29  A    between atoms: _68  and  _69
REMARK   30  A    between atoms: _68  and  _71
REMARK   31  A    between atoms: _71  and  _72
REMARK   32  A    between atoms: _72  and  _73
REMARK   33  A    between atoms: _76  and  _78
REMARK   34  A    between atoms: _78  and  _79
REMARK   35  A    between atoms: _78  and  _81
REMARK   36  A    between atoms: _81  and  _82
REMARK   37  A    between atoms: _84  and  _86
REMARK   38  A    between atoms: _86  and  _87
REMARK   39  A    between atoms: _86  and  _89
REMARK   40  A    between atoms: _89  and  _90
REMARK   41  A    between atoms: _95  and  _96
REMARK   42  A    between atoms: _98  and  _100
REMARK   43  A    between atoms: _100  and  _101
REMARK   44  A    between atoms: _100  and  _103
REMARK   45  A    between atoms: _103  and  _104
REMARK   46  A    between atoms: _104  and  _105
REMARK   47  A    between atoms: _108  and  _110
REMARK   48  A    between atoms: _110  and  _111
REMARK   49  A    between atoms: _110  and  _113
REMARK   50  A    between atoms: _113  and  _114
REMARK   51  A    between atoms: _120  and  _122
REMARK   52  A    between atoms: _122  and  _123
REMARK   53  A    between atoms: _122  and  _125
REMARK   54  A    between atoms: _125  and  _126
REMARK   55  A    between atoms: _128  and  _130
REMARK   56  A    between atoms: _130  and  _131
REMARK   57  A    between atoms: _133  and  _135
REMARK   58  A    between atoms: _135  and  _136
REMARK   59  A    between atoms: _135  and  _138
REMARK   60  A    between atoms: _138  and  _139
REMARK   61  A    between atoms: _143  and  _144
REMARK   62  A    between atoms: _149  and  _151
REMARK   63  A    between atoms: _151  and  _152
REMARK   64  A    between atoms: _155  and  _157
REMARK   65  A    between atoms: _157  and  _158
REMARK   66  A    between atoms: _160  and  _162
REMARK   67  A    between atoms: _162  and  _163
REMARK   68  A    between atoms: _162  and  _165
REMARK   69  A    between atoms: _165  and  _166
REMARK   70  A    between atoms: _169  and  _171
REMARK   71  A    between atoms: _171  and  _172
REMARK   72  A    between atoms: _171  and  _174
REMARK   73  A    between atoms: _174  and  _175
REMARK   74  A    between atoms: _180  and  _182
REMARK   75  A    between atoms: _182  and  _183
REMARK   76  A    between atoms: _182  and  _185
REMARK   77  A    between atoms: _185  and  _186
REMARK   78  A    between atoms: _190  and  _191
REMARK   79  A    between atoms: _196  and  _198
REMARK   80  A    between atoms: _198  and  _199
REMARK   81  A    between atoms: _198  and  _201
REMARK   82  A    between atoms: _201  and  _202
REMARK   83  A    between atoms: _207  and  _209
REMARK   84  A    between atoms: _209  and  _210
REMARK   85  A    between atoms: _209  and  _212
REMARK   86  A    between atoms: _212  and  _213
REMARK   87  A    between atoms: _218  and  _219
REMARK   88  A    between atoms: _221  and  _223
REMARK   89  A    between atoms: _223  and  _224
REMARK   90  A    between atoms: _223  and  _226
REMARK   91  A    between atoms: _226  and  _227
REMARK   92  A    between atoms: _230  and  _232
REMARK   93  A    between atoms: _232  and  _233
REMARK   94  A    between atoms: _232  and  _235
REMARK   95  A    between atoms: _235  and  _236
REMARK   96  A    between atoms: _236  and  _237
REMARK   97  A    between atoms: _237  and  _238
REMARK   98  A    between atoms: _247  and  _249
REMARK   99  A    between atoms: _249  and  _250
REMARK  100  A    between atoms: _249  and  _252
REMARK  101  A    between atoms: _252  and  _253
REMARK  102  A    between atoms: _253  and  _254
REMARK  103  A    between atoms: _254  and  _255
REMARK  104  A    between atoms: _255  and  _256
REMARK  105  A    between atoms: _260  and  _262
REMARK  106  A    between atoms: _262  and  _263
REMARK  107  A    between atoms: _262  and  _265
REMARK  108  A    between atoms: _265  and  _266
REMARK  109  A    between atoms: _271  and  _273
REMARK  110  A    between atoms: _273  and  _274
REMARK  111  A    between atoms: _273  and  _276
REMARK  112  A    between atoms: _279  and  _281
REMARK  113  A    between atoms: _281  and  _282
REMARK  114  A    between atoms: _281  and  _284
REMARK  115  A    between atoms: _284  and  _285
REMARK  116  A    between atoms: _288  and  _290
REMARK  117  A    between atoms: _290  and  _291
REMARK  118  A    between atoms: _290  and  _293
REMARK  119  A    between atoms: _296  and  _298
REMARK  120  A    between atoms: _298  and  _299
REMARK  121  A    between atoms: _298  and  _301
REMARK  122  A    between atoms: _301  and  _302
REMARK  123  A    between atoms: _305  and  _307
REMARK  124  A    between atoms: _307  and  _308
REMARK  125  A    between atoms: _311  and  _313
REMARK  126  A    between atoms: _313  and  _314
REMARK  127  A    between atoms: _313  and  _316
REMARK  128  A    between atoms: _319  and  _321
REMARK  129  A    between atoms: _321  and  _322
REMARK  130  A    between atoms: _325  and  _327
REMARK  131  A    between atoms: _327  and  _328
REMARK  132  A    between atoms: _331  and  _333
REMARK  133  A    between atoms: _333  and  _334
REMARK  134  A    between atoms: _333  and  _336
REMARK  135  A    between atoms: _336  and  _337
REMARK  136  A    between atoms: _342  and  _343
REMARK  137  A    between atoms: _345  and  _347
REMARK  138  A    between atoms: _347  and  _348
REMARK  139  A    between atoms: _347  and  _350
REMARK  140  A    between atoms: _350  and  _351
REMARK  141  A    between atoms: _351  and  _352
REMARK  142  A    between atoms: _352  and  _353
REMARK  143  A    between atoms: _353  and  _354
REMARK  144  A    between atoms: _358  and  _360
REMARK  145  A    between atoms: _360  and  _361
REMARK  146  A    between atoms: _360  and  _363
REMARK  147  A    between atoms: _363  and  _364
REMARK  148  A    between atoms: _366  and  _368
REMARK  149  A    between atoms: _368  and  _369
REMARK  150  A    between atoms: _368  and  _371
REMARK  151  A    between atoms: _371  and  _372
REMARK  152  A    between atoms: _378  and  _380
REMARK  153  A    between atoms: _380  and  _381
REMARK  154  A    between atoms: _380  and  _383
REMARK  155  A    between atoms: _383  and  _384
REMARK  156  A    between atoms: _387  and  _389
REMARK  157  A    between atoms: _389  and  _390
REMARK  158  A    between atoms: _389  and  _392
REMARK  159  A    between atoms: _395  and  _397
REMARK  160  A    between atoms: _397  and  _398
REMARK  161  A    between atoms: _397  and  _400
REMARK  162  A    between atoms: _400  and  _401
REMARK  163  A    between atoms: _401  and  _402
REMARK  164  A    between atoms: _407  and  _409
REMARK  165  A    between atoms: _409  and  _410
REMARK  166  A    between atoms: _409  and  _412
REMARK  167  A    between atoms: _415  and  _417
REMARK  168  A    between atoms: _417  and  _418
REMARK  169  A    between atoms: _420  and  _422
REMARK  170  A    between atoms: _422  and  _423
REMARK  171  A    between atoms: _422  and  _425
REMARK  172  A    between atoms: _425  and  _426
REMARK  173  A    between atoms: _429  and  _431
REMARK  174  A    between atoms: _431  and  _432
REMARK  175  A    between atoms: _431  and  _434
REMARK  176  A    between atoms: _434  and  _435
REMARK  177  A    between atoms: _440  and  _442
REMARK  178  A    between atoms: _442  and  _443
REMARK  179  A    between atoms: _446  and  _448
REMARK  180  A    between atoms: _448  and  _449
REMARK  181  A    between atoms: _448  and  _451
REMARK  182  A    between atoms: _451  and  _452
REMARK  183  A    between atoms: _457  and  _459
REMARK  184  A    between atoms: _459  and  _460
REMARK  185  A    between atoms: _459  and  _462
REMARK  186  A    between atoms: _462  and  _463
REMARK  187  A    between atoms: _473  and  _475
REMARK  188  A    between atoms: _475  and  _476
REMARK  189  A    between atoms: _475  and  _478
REMARK  190  A    between atoms: _478  and  _479
REMARK  191  A    between atoms: _482  and  _484
REMARK  192  A    between atoms: _484  and  _485
REMARK  193  A    between atoms: _488  and  _490
REMARK  194  A    between atoms: _490  and  _491
REMARK  195  A    between atoms: _490  and  _493
REMARK  196  A    between atoms: _493  and  _494
REMARK  197  A    between atoms: _496  and  _498
REMARK  198  A    between atoms: _498  and  _499
REMARK  199  A    between atoms: _498  and  _501
REMARK  200  A    between atoms: _501  and  _502
REMARK  201  A    between atoms: _502  and  _503
REMARK  202  A    between atoms: _506  and  _508
REMARK  203  A    between atoms: _508  and  _509
REMARK  204  A    between atoms: _508  and  _511
REMARK  205  A    between atoms: _511  and  _512
REMARK  206  A    between atoms: _512  and  _513
REMARK  207  A    between atoms: _516  and  _518
REMARK  208  A    between atoms: _518  and  _519
REMARK  209  A    between atoms: _518  and  _521
REMARK  210  A    between atoms: _521  and  _522
REMARK  211  A    between atoms: _522  and  _523
REMARK  212  A    between atoms: _523  and  _524
REMARK  213  A    between atoms: _533  and  _535
REMARK  214  A    between atoms: _535  and  _536
REMARK  215  A    between atoms: _539  and  _541
REMARK  216  A    between atoms: _541  and  _542
REMARK  217  A    between atoms: _541  and  _544
REMARK  218  A    between atoms: _544  and  _545
REMARK  219  A    between atoms: _545  and  _546
REMARK  220  A    between atoms: _549  and  _551
REMARK  221  A    between atoms: _551  and  _552
REMARK  222  A    between atoms: _554  and  _556
REMARK  223  A    between atoms: _556  and  _557
REMARK  224  A    between atoms: _556  and  _559
REMARK  225  A    between atoms: _559  and  _560
REMARK  226  A    between atoms: _565  and  _567
REMARK  227  A    between atoms: _567  and  _568
REMARK  228  A    between atoms: _567  and  _570
REMARK  229  A    between atoms: _570  and  _571
REMARK  230  A    between atoms: _576  and  _578
REMARK  231  A    between atoms: _578  and  _579
REMARK  232  A    between atoms: _578  and  _581
REMARK  233  A    between atoms: _581  and  _582
REMARK  234  A    between atoms: _582  and  _583
REMARK  235  A    between atoms: _585  and  _587
REMARK  236  A    between atoms: _587  and  _588
REMARK  237  A    between atoms: _587  and  _590
REMARK  238  A    between atoms: _590  and  _591
REMARK  239  A    between atoms: _591  and  _592
REMARK  240  A    between atoms: _597  and  _599
REMARK  241  A    between atoms: _599  and  _600
REMARK  242  A    between atoms: _603  and  _605
REMARK  243  A    between atoms: _605  and  _606
REMARK  244  A    between atoms: _605  and  _608
REMARK  245  A    between atoms: _608  and  _609
REMARK  246  A    between atoms: _614  and  _616
REMARK  247  A    between atoms: _616  and  _617
REMARK  248  A    between atoms: _616  and  _619
REMARK  249  A    between atoms: _619  and  _620
REMARK  250  A    between atoms: _620  and  _621
REMARK  251  A    between atoms: _623  and  _625
REMARK  252  A    between atoms: _625  and  _626
REMARK  253  A    between atoms: _625  and  _628
REMARK  254  A    between atoms: _628  and  _629
REMARK  255  A    between atoms: _629  and  _630
REMARK  256  A    between atoms: _630  and  _631
REMARK  257  A    between atoms: _640  and  _642
REMARK  258  A    between atoms: _642  and  _643
REMARK  259  A    between atoms: _642  and  _645
REMARK  260  A    between atoms: _645  and  _646
REMARK  261  A    between atoms: _646  and  _647
REMARK  262  A    between atoms: _647  and  _648
REMARK  263  A    between atoms: _648  and  _649
REMARK  264  A    between atoms: _653  and  _655
REMARK  265  A    between atoms: _655  and  _656
REMARK  266  A    between atoms: _655  and  _658
REMARK  267  A    between atoms: _658  and  _659
REMARK  268  A    between atoms: _661  and  _663
REMARK  269  A    between atoms: _663  and  _664
REMARK  270  A    between atoms: _663  and  _666
REMARK  271  A    between atoms: _666  and  _667
REMARK  272  A    between atoms: _667  and  _668
REMARK  273  A    between atoms: _668  and  _669
REMARK  274  A    between atoms: _678  and  _680
REMARK  275  A    between atoms: _680  and  _681
REMARK  276  A    between atoms: _680  and  _683
REMARK  277  A    between atoms: _683  and  _684
REMARK  278  A    between atoms: _684  and  _685
REMARK  279  A    between atoms: _685  and  _686
REMARK  280  A    between atoms: _686  and  _687
REMARK  281  A    between atoms: _691  and  _693
REMARK  282  A    between atoms: _693  and  _694
REMARK  283  A    between atoms: _693  and  _696
REMARK  284  A    between atoms: _696  and  _697
REMARK  285  A    between atoms: _700  and  _702
REMARK  286  A    between atoms: _702  and  _703
REMARK  287  A    between atoms: _702  and  _705
REMARK  288  A    between atoms: _705  and  _706
REMARK                            x       y       z     vdW  Elec       q    Type
REMARK                         _______ _______ _______ _____ _____    ______ ____
ROOT
ATOM      1  CG  TYR A   1      20.272   7.579  63.799  0.00  0.00    -0.020 A 
ATOM      2  CD2 TYR A   1      21.482   7.941  64.373  0.00  0.00    -0.001 A 
ATOM      3  CE2 TYR A   1      22.003   9.216  64.199  0.00  0.00    +0.036 A 
ATOM      4  CZ  TYR A   1      21.311  10.140  63.439  0.00  0.00    +0.134 A 
ATOM      5  CE1 TYR A   1      20.108   9.799  62.858  0.00  0.00    +0.036 A 
ATOM      6  CD1 TYR A   1      19.599   8.528  63.038  0.00  0.00    -0.001 A 
ENDROOT
BRANCH   4   7
ATOM      7  OH  TYR A   1      21.818  11.408  63.256  0.00  0.00    -0.506 OA
ATOM      8  HH  TYR A   1      21.919  11.852  64.135  0.00  0.00    +0.292 HD
ENDBRANCH   4   7
BRANCH   1   9
ATOM      9  CB  TYR A   1      19.702   6.185  63.982  0.00  0.00    +0.051 C 
BRANCH   9  10
ATOM     10  CA  TYR A   1      18.409   6.141  64.800  0.00  0.00    +0.137 C 
BRANCH  10  11
ATOM     11  N   TYR A   1      18.693   5.998  66.223  0.00  0.00    -0.239 NA
ATOM     12  H   TYR A   1      19.676   6.022  66.562  0.00  0.00    +0.142 HD
ENDBRANCH  10  11
BRANCH  10  13
ATOM     13  C   TYR A   1      17.495   5.035  64.298  0.00  0.00    +0.224 C 
ATOM     14  O   TYR A   1      16.529   5.291  63.578  0.00  0.00    -0.287 OA
ENDBRANCH  10  13
ENDBRANCH   9  10
ENDBRANCH   1   9
TORSDOF 5
REMARK  Name = ../refined-set-2016/3t6b/3t6b_pocket.pdb
REMARK  288 active torsions:
REMARK  status: ('A' for Active; 'I' for Inactive)
REMARK    1  A    between atoms: _1  and  _3
REMARK    2  A    between atoms: _3  and  _4
REMARK    3  A    between atoms: _6  and  _8
REMARK    4  A    between atoms: _8  and  _9
REMARK    5  A    between atoms: _8  and  _11
REMARK    6  A    between atoms: _11  and  _12
REMARK    7  A    between atoms: _14  and  _16
REMARK    8  A    between atoms: _16  and  _17
REMARK    9  A    between atoms: _16  and  _19
REMARK   10  A    between atoms: _19  and  _20
REMARK   11  A    between atoms: _23  and  _25
REMARK   12  A    between atoms: _25  and  _26
REMARK   13  A    between atoms: _25  and  _28
REMARK   14  A    between atoms: _28  and  _29
REMARK   15  A    between atoms: _31  and  _33
REMARK   16  A    between atoms: _33  and  _34
REMARK   17  A    between atoms: _33  and  _36
REMARK   18  A    between atoms: _36  and  _37
REMARK   19  A    between atoms: _43  and  _45
REMARK   20  A    between atoms: _45  and  _46
REMARK   21  A    between atoms: _45  and  _48
REMARK   22  A    between atoms: _48  and  _49
REMARK   23  A    between atoms: _54  and  _55
REMARK   24  A    between atoms: _57  and  _59
REMARK   25  A    between atoms: _59  and  _60
REMARK   26  A    between atoms: _59  and  _62
REMARK   27  A    between atoms: _62  and  _63
REMARK   28  A    between atoms: _66  and  _68
REMARK   29  A    between atoms: _68  and  _69
REMARK   30  A    between atoms: _68  and  _71
REMARK   31  A    between atoms: _71  and  _72
REMARK   32  A    between atoms: _72  and  _73
REMARK   33  A    between atoms: _76  and  _78
REMARK   34  A    between atoms: _78  and  _79
REMARK   35  A    between atoms: _78  and  _81
REMARK   36  A    between atoms: _81  and  _82
REMARK   37  A    between atoms: _84  and  _86
REMARK   38  A    between atoms: _86  and  _87
REMARK   39  A    between atoms: _86  and  _89
REMARK   40  A    between atoms: _89  and  _90
REMARK   41  A    between atoms: _95  and  _96
REMARK   42  A    between atoms: _98  and  _100
REMARK   43  A    between atoms: _100  and  _101
REMARK   44  A    between atoms: _100  and  _103
REMARK   45  A    between atoms: _103  and  _104
REMARK   46  A    between atoms: _104  and  _105
REMARK   47  A    between atoms: _108  and  _110
REMARK   48  A    between atoms: _110  and  _111
REMARK   49  A    between atoms: _110  and  _113
REMARK   50  A    between atoms: _113  and  _114
REMARK   51  A    between atoms: _120  and  _122
REMARK   52  A    between atoms: _122  and  _123
REMARK   53  A    between atoms: _122  and  _125
REMARK   54  A    between atoms: _125  and  _126
REMARK   55  A    between atoms: _128  and  _130
REMARK   56  A    between atoms: _130  and  _131
REMARK   57  A    between atoms: _133  and  _135
REMARK   58  A    between atoms: _135  and  _136
REMARK   59  A    between atoms: _135  and  _138
REMARK   60  A    between atoms: _138  and  _139
REMARK   61  A    between atoms: _143  and  _144
REMARK   62  A    between atoms: _149  and  _151
REMARK   63  A    between atoms: _151  and  _152
REMARK   64  A    between atoms: _155  and  _157
REMARK   65  A    between atoms: _157  and  _158
REMARK   66  A    between atoms: _160  and  _162
REMARK   67  A    between atoms: _162  and  _163
REMARK   68  A    between atoms: _162  and  _165
REMARK   69  A    between atoms: _165  and  _166
REMARK   70  A    between atoms: _169  and  _171
REMARK   71  A    between atoms: _171  and  _172
REMARK   72  A    between atoms: _171  and  _174
REMARK   73  A    between atoms: _174  and  _175
REMARK   74  A    between atoms: _180  and  _182
REMARK   75  A    between atoms: _182  and  _183
REMARK   76  A    between atoms: _182  and  _185
REMARK   77  A    between atoms: _185  and  _186
REMARK   78  A    between atoms: _190  and  _191
REMARK   79  A    between atoms: _196  and  _198
REMARK   80  A    between atoms: _198  and  _199
REMARK   81  A    between atoms: _198  and  _201
REMARK   82  A    between atoms: _201  and  _202
REMARK   83  A    between atoms: _207  and  _209
REMARK   84  A    between atoms: _209  and  _210
REMARK   85  A    between atoms: _209  and  _212
REMARK   86  A    between atoms: _212  and  _213
REMARK   87  A    between atoms: _218  and  _219
REMARK   88  A    between atoms: _221  and  _223
REMARK   89  A    between atoms: _223  and  _224
REMARK   90  A    between atoms: _223  and  _226
REMARK   91  A    between atoms: _226  and  _227
REMARK   92  A    between atoms: _230  and  _232
REMARK   93  A    between atoms: _232  and  _233
REMARK   94  A    between atoms: _232  and  _235
REMARK   95  A    between atoms: _235  and  _236
REMARK   96  A    between atoms: _236  and  _237
REMARK   97  A    between atoms: _237  and  _238
REMARK   98  A    between atoms: _247  and  _249
REMARK   99  A    between atoms: _249  and  _250
REMARK  100  A    between atoms: _249  and  _252
REMARK  101  A    between atoms: _252  and  _253
REMARK  102  A    between atoms: _253  and  _254
REMARK  103  A    between atoms: _254  and  _255
REMARK  104  A    between atoms: _255  and  _256
REMARK  105  A    between atoms: _260  and  _262
REMARK  106  A    between atoms: _262  and  _263
REMARK  107  A    between atoms: _262  and  _265
REMARK  108  A    between atoms: _265  and  _266
REMARK  109  A    between atoms: _271  and  _273
REMARK  110  A    between atoms: _273  and  _274
REMARK  111  A    between atoms: _273  and  _276
REMARK  112  A    between atoms: _279  and  _281
REMARK  113  A    between atoms: _281  and  _282
REMARK  114  A    between atoms: _281  and  _284
REMARK  115  A    between atoms: _284  and  _285
REMARK  116  A    between atoms: _288  and  _290
REMARK  117  A    between atoms: _290  and  _291
REMARK  118  A    between atoms: _290  and  _293
REMARK  119  A    between atoms: _296  and  _298
REMARK  120  A    between atoms: _298  and  _299
REMARK  121  A    between atoms: _298  and  _301
REMARK  122  A    between atoms: _301  and  _302
REMARK  123  A    between atoms: _305  and  _307
REMARK  124  A    between atoms: _307  and  _308
REMARK  125  A    between atoms: _311  and  _313
REMARK  126  A    between atoms: _313  and  _314
REMARK  127  A    between atoms: _313  and  _316
REMARK  128  A    between atoms: _319  and  _321
REMARK  129  A    between atoms: _321  and  _322
REMARK  130  A    between atoms: _325  and  _327
REMARK  131  A    between atoms: _327  and  _328
REMARK  132  A    between atoms: _331  and  _333
REMARK  133  A    between atoms: _333  and  _334
REMARK  134  A    between atoms: _333  and  _336
REMARK  135  A    between atoms: _336  and  _337
REMARK  136  A    between atoms: _342  and  _343
REMARK  137  A    between atoms: _345  and  _347
REMARK  138  A    between atoms: _347  and  _348
REMARK  139  A    between atoms: _347  and  _350
REMARK  140  A    between atoms: _350  and  _351
REMARK  141  A    between atoms: _351  and  _352
REMARK  142  A    between atoms: _352  and  _353
REMARK  143  A    between atoms: _353  and  _354
REMARK  144  A    between atoms: _358  and  _360
REMARK  145  A    between atoms: _360  and  _361
REMARK  146  A    between atoms: _360  and  _363
REMARK  147  A    between atoms: _363  and  _364
REMARK  148  A    between atoms: _366  and  _368
REMARK  149  A    between atoms: _368  and  _369
REMARK  150  A    between atoms: _368  and  _371
REMARK  151  A    between atoms: _371  and  _372
REMARK  152  A    between atoms: _378  and  _380
REMARK  153  A    between atoms: _380  and  _381
REMARK  154  A    between atoms: _380  and  _383
REMARK  155  A    between atoms: _383  and  _384
REMARK  156  A    between atoms: _387  and  _389
REMARK  157  A    between atoms: _389  and  _390
REMARK  158  A    between atoms: _389  and  _392
REMARK  159  A    between atoms: _395  and  _397
REMARK  160  A    between atoms: _397  and  _398
REMARK  161  A    between atoms: _397  and  _400
REMARK  162  A    between atoms: _400  and  _401
REMARK  163  A    between atoms: _401  and  _402
REMARK  164  A    between atoms: _407  and  _409
REMARK  165  A    between atoms: _409  and  _410
REMARK  166  A    between atoms: _409  and  _412
REMARK  167  A    between atoms: _415  and  _417
REMARK  168  A    between atoms: _417  and  _418
REMARK  169  A    between atoms: _420  and  _422
REMARK  170  A    between atoms: _422  and  _423
REMARK  171  A    between atoms: _422  and  _425
REMARK  172  A    between atoms: _425  and  _426
REMARK  173  A    between atoms: _429  and  _431
REMARK  174  A    between atoms: _431  and  _432
REMARK  175  A    between atoms: _431  and  _434
REMARK  176  A    between atoms: _434  and  _435
REMARK  177  A    between atoms: _440  and  _442
REMARK  178  A    between atoms: _442  and  _443
REMARK  179  A    between atoms: _446  and  _448
REMARK  180  A    between atoms: _448  and  _449
REMARK  181  A    between atoms: _448  and  _451
REMARK  182  A    between atoms: _451  and  _452
REMARK  183  A    between atoms: _457  and  _459
REMARK  184  A    between atoms: _459  and  _460
REMARK  185  A    between atoms: _459  and  _462
REMARK  186  A    between atoms: _462  and  _463
REMARK  187  A    between atoms: _473  and  _475
REMARK  188  A    between atoms: _475  and  _476
REMARK  189  A    between atoms: _475  and  _478
REMARK  190  A    between atoms: _478  and  _479
REMARK  191  A    between atoms: _482  and  _484
REMARK  192  A    between atoms: _484  and  _485
REMARK  193  A    between atoms: _488  and  _490
REMARK  194  A    between atoms: _490  and  _491
REMARK  195  A    between atoms: _490  and  _493
REMARK  196  A    between atoms: _493  and  _494
REMARK  197  A    between atoms: _496  and  _498
REMARK  198  A    between atoms: _498  and  _499
REMARK  199  A    between atoms: _498  and  _501
REMARK  200  A    between atoms: _501  and  _502
REMARK  201  A    between atoms: _502  and  _503
REMARK  202  A    between atoms: _506  and  _508
REMARK  203  A    between atoms: _508  and  _509
REMARK  204  A    between atoms: _508  and  _511
REMARK  205  A    between atoms: _511  and  _512
REMARK  206  A    between atoms: _512  and  _513
REMARK  207  A    between atoms: _516  and  _518
REMARK  208  A    between atoms: _518  and  _519
REMARK  209  A    between atoms: _518  and  _521
REMARK  210  A    between atoms: _521  and  _522
REMARK  211  A    between atoms: _522  and  _523
REMARK  212  A    between atoms: _523  and  _524
REMARK  213  A    between atoms: _533  and  _535
REMARK  214  A    between atoms: _535  and  _536
REMARK  215  A    between atoms: _539  and  _541
REMARK  216  A    between atoms: _541  and  _542
REMARK  217  A    between atoms: _541  and  _544
REMARK  218  A    between atoms: _544  and  _545
REMARK  219  A    between atoms: _545  and  _546
REMARK  220  A    between atoms: _549  and  _551
REMARK  221  A    between atoms: _551  and  _552
REMARK  222  A    between atoms: _554  and  _556
REMARK  223  A    between atoms: _556  and  _557
REMARK  224  A    between atoms: _556  and  _559
REMARK  225  A    between atoms: _559  and  _560
REMARK  226  A    between atoms: _565  and  _567
REMARK  227  A    between atoms: _567  and  _568
REMARK  228  A    between atoms: _567  and  _570
REMARK  229  A    between atoms: _570  and  _571
REMARK  230  A    between atoms: _576  and  _578
REMARK  231  A    between atoms: _578  and  _579
REMARK  232  A    between atoms: _578  and  _581
REMARK  233  A    between atoms: _581  and  _582
REMARK  234  A    between atoms: _582  and  _583
REMARK  235  A    between atoms: _585  and  _587
REMARK  236  A    between atoms: _587  and  _588
REMARK  237  A    between atoms: _587  and  _590
REMARK  238  A    between atoms: _590  and  _591
REMARK  239  A    between atoms: _591  and  _592
REMARK  240  A    between atoms: _597  and  _599
REMARK  241  A    between atoms: _599  and  _600
REMARK  242  A    between atoms: _603  and  _605
REMARK  243  A    between atoms: _605  and  _606
REMARK  244  A    between atoms: _605  and  _608
REMARK  245  A    between atoms: _608  and  _609
REMARK  246  A    between atoms: _614  and  _616
REMARK  247  A    between atoms: _616  and  _617
REMARK  248  A    between atoms: _616  and  _619
REMARK  249  A    between atoms: _619  and  _620
REMARK  250  A    between atoms: _620  and  _621
REMARK  251  A    between atoms: _623  and  _625
REMARK  252  A    between atoms: _625  and  _626
REMARK  253  A    between atoms: _625  and  _628
REMARK  254  A    between atoms: _628  and  _629
REMARK  255  A    between atoms: _629  and  _630
REMARK  256  A    between atoms: _630  and  _631
REMARK  257  A    between atoms: _640  and  _642
REMARK  258  A    between atoms: _642  and  _643
REMARK  259  A    between atoms: _642  and  _645
REMARK  260  A    between atoms: _645  and  _646
REMARK  261  A    between atoms: _646  and  _647
REMARK  262  A    between atoms: _647  and  _648
REMARK  263  A    between atoms: _648  and  _649
REMARK  264  A    between atoms: _653  and  _655
REMARK  265  A    between atoms: _655  and  _656
REMARK  266  A    between atoms: _655  and  _658
REMARK  267  A    between atoms: _658  and  _659
REMARK  268  A    between atoms: _661  and  _663
REMARK  269  A    between atoms: _663  and  _664
REMARK  270  A    between atoms: _663  and  _666
REMARK  271  A    between atoms: _666  and  _667
REMARK  272  A    between atoms: _667  and  _668
REMARK  273  A    between atoms: _668  and  _669
REMARK  274  A    between atoms: _678  and  _680
REMARK  275  A    between atoms: _680  and  _681
REMARK  276  A    between atoms: _680  and  _683
REMARK  277  A    between atoms: _683  and  _684
REMARK  278  A    between atoms: _684  and  _685
REMARK  279  A    between atoms: _685  and  _686
REMARK  280  A    between atoms: _686  and  _687
REMARK  281  A    between atoms: _691  and  _693
REMARK  282  A    between atoms: _693  and  _694
REMARK  283  A    between atoms: _693  and  _696
REMARK  284  A    between atoms: _696  and  _697
REMARK  285  A    between atoms: _700  and  _702
REMARK  286  A    between atoms: _702  and  _703
REMARK  287  A    between atoms: _702  and  _705
REMARK  288  A    between atoms: _705  and  _706
REMARK                            x       y       z     vdW  Elec       q    Type
REMARK                         _______ _______ _______ _____ _____    ______ ____
ROOT
ATOM      1  C   GLU A   2      16.844  11.460  59.529  0.00  0.00    +0.241 C 
ATOM      2  N   SER A   3      16.995  12.324  60.527  0.00  0.00    -0.295 N 
ATOM      3  H   SER A   3      17.799  12.983  60.494  0.00  0.00    +0.150 HD
ATOM      4  O   GLU A   2      15.895  10.676  59.440  0.00  0.00    -0.273 OA
ENDROOT
BRANCH   2   5
ATOM      5  CA  SER A   3      16.088  12.393  61.667  0.00  0.00    +0.178 C 
BRANCH   5   6
ATOM      6  C   SER A   3      14.989  13.450  61.518  0.00  0.00    +0.243 C 
ATOM      7  O   SER A   3      14.243  13.716  62.463  0.00  0.00    -0.273 OA
ATOM      8  N   TYR A   4      14.900  14.058  60.340  0.00  0.00    -0.298 N 
ATOM      9  H   TYR A   4      15.555  13.792  59.578  0.00  0.00    +0.150 HD
BRANCH   8  10
ATOM     10  CA  TYR A   4      13.894  15.099  60.094  0.00  0.00    +0.141 C 
BRANCH  10  11
ATOM     11  C   TYR A   4      12.478  14.759  60.554  0.00  0.00    +0.227 C 
ATOM     12  O   TYR A   4      11.839  15.566  61.224  0.00  0.00    -0.286 OA
ENDBRANCH  10  11
BRANCH  10  13
ATOM     13  CB  TYR A   4      13.843  15.476  58.614  0.00  0.00    +0.054 C 
BRANCH  13  14
ATOM     14  CG  TYR A   4      15.120  16.094  58.098  0.00  0.00    -0.020 A 
ATOM     15  CD2 TYR A   4      15.574  17.314  58.586  0.00  0.00    -0.001 A 
ATOM     16  CE2 TYR A   4      16.739  17.882  58.115  0.00  0.00    +0.036 A 
ATOM     17  CZ  TYR A   4      17.470  17.226  57.144  0.00  0.00    +0.134 A 
ATOM     18  CE1 TYR A   4      17.041  16.015  56.650  0.00  0.00    +0.036 A 
ATOM     19  CD1 TYR A   4      15.874  15.457  57.125  0.00  0.00    -0.001 A 
BRANCH  17  20
ATOM     20  OH  TYR A   4      18.637  17.777  56.665  0.00  0.00    -0.506 OA
ATOM     21  HH  TYR A   4      18.442  18.659  56.261  0.00  0.00    +0.292 HD
ENDBRANCH  17  20
ENDBRANCH  13  14
ENDBRANCH  10  13
ENDBRANCH   8  10
ENDBRANCH   5   6
BRANCH   5  22
ATOM     22  CB  SER A   3      16.868  12.590  62.971  0.00  0.00    +0.166 C 
BRANCH  22  23
ATOM     23  OG  SER A   3      18.078  13.296  62.752  0.00  0.00    -0.380 OA
ATOM     24  H   SER A   3      17.875  14.187  62.371  0.00  0.00    +0.211 HD
ENDBRANCH  22  23
ENDBRANCH   5  22
ENDBRANCH   2   5
BRANCH   1  25
ATOM     25  CA  GLU A   2      17.940  11.500  58.469  0.00  0.00    +0.149 C 
BRANCH  25  28
ATOM     26  C   ILE A   1      19.501   9.659  58.773  0.00  0.00    +0.238 C 
ATOM     27  O   ILE A   1      20.041  10.212  59.732  0.00  0.00    -0.274 OA
ATOM     28  N   GLU A   2      18.459  10.179  58.131  0.00  0.00    -0.297 N 
ATOM     29  H   GLU A   2      18.004   9.632  57.372  0.00  0.00    +0.150 HD
BRANCH  26  30
ATOM     30  CA  ILE A   1      20.027   8.324  58.253  0.00  0.00    +0.145 C 
BRANCH  30  31
ATOM     31  CB  ILE A   1      20.469   8.500  56.780  0.00  0.00    +0.025 C 
ATOM     32  CG2 ILE A   1      21.687   9.408  56.687  0.00  0.00    +0.002 C 
BRANCH  31  33
ATOM     33  CG1 ILE A   1      20.738   7.140  56.129  0.00  0.00    +0.002 C 
ATOM     34  CD1 ILE A   1      21.767   6.299  56.859  0.00  0.00    +0.000 C 
ENDBRANCH  31  33
ENDBRANCH  30  31
BRANCH  30  35
ATOM     35  N   ILE A   1      19.083   7.218  58.392  0.00  0.00    -0.238 NA
ATOM     36  H   ILE A   1      18.182   7.248  57.873  0.00  0.00    +0.142 HD
ENDBRANCH  30  35
ENDBRANCH  26  30
ENDBRANCH  25  28
BRANCH  25  37
ATOM     37  CB  GLU A   2      17.451  12.236  57.219  0.00  0.00    +0.041 C 
BRANCH  37  38
ATOM     38  CG  GLU A   2      18.514  12.421  56.157  0.00  0.00    +0.116 C 
BRANCH  38  39
ATOM     39  CD  GLU A   2      19.781  13.067  56.691  0.00  0.00    +0.365 C 
ATOM     40  OE2 GLU A   2      19.797  13.492  57.869  0.00  0.00    -0.246 OA
ATOM     41  OE1 GLU A   2      20.766  13.151  55.926  0.00  0.00    -0.246 OA
ENDBRANCH  38  39
ENDBRANCH  37  38
ENDBRANCH  25  37
ENDBRANCH   1  25
TORSDOF 18
REMARK  Name = ../refined-set-2016/3t6b/3t6b_pocket.pdb
REMARK  288 active torsions:
REMARK  status: ('A' for Active; 'I' for Inactive)
REMARK    1  A    between atoms: _1  and  _3
REMARK    2  A    between atoms: _3  and  _4
REMARK    3  A    between atoms: _6  and  _8
REMARK    4  A    between atoms: _8  and  _9
REMARK    5  A    between atoms: _8  and  _11
REMARK    6  A    between atoms: _11  and  _12
REMARK    7  A    between atoms: _14  and  _16
REMARK    8  A    between atoms: _16  and  _17
REMARK    9  A    between atoms: _16  and  _19
REMARK   10  A    between atoms: _19  and  _20
REMARK   11  A    between atoms: _23  and  _25
REMARK   12  A    between atoms: _25  and  _26
REMARK   13  A    between atoms: _25  and  _28
REMARK   14  A    between atoms: _28  and  _29
REMARK   15  A    between atoms: _31  and  _33
REMARK   16  A    between atoms: _33  and  _34
REMARK   17  A    between atoms: _33  and  _36
REMARK   18  A    between atoms: _36  and  _37
REMARK   19  A    between atoms: _43  and  _45
REMARK   20  A    between atoms: _45  and  _46
REMARK   21  A    between atoms: _45  and  _48
REMARK   22  A    between atoms: _48  and  _49
REMARK   23  A    between atoms: _54  and  _55
REMARK   24  A    between atoms: _57  and  _59
REMARK   25  A    between atoms: _59  and  _60
REMARK   26  A    between atoms: _59  and  _62
REMARK   27  A    between atoms: _62  and  _63
REMARK   28  A    between atoms: _66  and  _68
REMARK   29  A    between atoms: _68  and  _69
REMARK   30  A    between atoms: _68  and  _71
REMARK   31  A    between atoms: _71  and  _72
REMARK   32  A    between atoms: _72  and  _73
REMARK   33  A    between atoms: _76  and  _78
REMARK   34  A    between atoms: _78  and  _79
REMARK   35  A    between atoms: _78  and  _81
REMARK   36  A    between atoms: _81  and  _82
REMARK   37  A    between atoms: _84  and  _86
REMARK   38  A    between atoms: _86  and  _87
REMARK   39  A    between atoms: _86  and  _89
REMARK   40  A    between atoms: _89  and  _90
REMARK   41  A    between atoms: _95  and  _96
REMARK   42  A    between atoms: _98  and  _100
REMARK   43  A    between atoms: _100  and  _101
REMARK   44  A    between atoms: _100  and  _103
REMARK   45  A    between atoms: _103  and  _104
REMARK   46  A    between atoms: _104  and  _105
REMARK   47  A    between atoms: _108  and  _110
REMARK   48  A    between atoms: _110  and  _111
REMARK   49  A    between atoms: _110  and  _113
REMARK   50  A    between atoms: _113  and  _114
REMARK   51  A    between atoms: _120  and  _122
REMARK   52  A    between atoms: _122  and  _123
REMARK   53  A    between atoms: _122  and  _125
REMARK   54  A    between atoms: _125  and  _126
REMARK   55  A    between atoms: _128  and  _130
REMARK   56  A    between atoms: _130  and  _131
REMARK   57  A    between atoms: _133  and  _135
REMARK   58  A    between atoms: _135  and  _136
REMARK   59  A    between atoms: _135  and  _138
REMARK   60  A    between atoms: _138  and  _139
REMARK   61  A    between atoms: _143  and  _144
REMARK   62  A    between atoms: _149  and  _151
REMARK   63  A    between atoms: _151  and  _152
REMARK   64  A    between atoms: _155  and  _157
REMARK   65  A    between atoms: _157  and  _158
REMARK   66  A    between atoms: _160  and  _162
REMARK   67  A    between atoms: _162  and  _163
REMARK   68  A    between atoms: _162  and  _165
REMARK   69  A    between atoms: _165  and  _166
REMARK   70  A    between atoms: _169  and  _171
REMARK   71  A    between atoms: _171  and  _172
REMARK   72  A    between atoms: _171  and  _174
REMARK   73  A    between atoms: _174  and  _175
REMARK   74  A    between atoms: _180  and  _182
REMARK   75  A    between atoms: _182  and  _183
REMARK   76  A    between atoms: _182  and  _185
REMARK   77  A    between atoms: _185  and  _186
REMARK   78  A    between atoms: _190  and  _191
REMARK   79  A    between atoms: _196  and  _198
REMARK   80  A    between atoms: _198  and  _199
REMARK   81  A    between atoms: _198  and  _201
REMARK   82  A    between atoms: _201  and  _202
REMARK   83  A    between atoms: _207  and  _209
REMARK   84  A    between atoms: _209  and  _210
REMARK   85  A    between atoms: _209  and  _212
REMARK   86  A    between atoms: _212  and  _213
REMARK   87  A    between atoms: _218  and  _219
REMARK   88  A    between atoms: _221  and  _223
REMARK   89  A    between atoms: _223  and  _224
REMARK   90  A    between atoms: _223  and  _226
REMARK   91  A    between atoms: _226  and  _227
REMARK   92  A    between atoms: _230  and  _232
REMARK   93  A    between atoms: _232  and  _233
REMARK   94  A    between atoms: _232  and  _235
REMARK   95  A    between atoms: _235  and  _236
REMARK   96  A    between atoms: _236  and  _237
REMARK   97  A    between atoms: _237  and  _238
REMARK   98  A    between atoms: _247  and  _249
REMARK   99  A    between atoms: _249  and  _250
REMARK  100  A    between atoms: _249  and  _252
REMARK  101  A    between atoms: _252  and  _253
REMARK  102  A    between atoms: _253  and  _254
REMARK  103  A    between atoms: _254  and  _255
REMARK  104  A    between atoms: _255  and  _256
REMARK  105  A    between atoms: _260  and  _262
REMARK  106  A    between atoms: _262  and  _263
REMARK  107  A    between atoms: _262  and  _265
REMARK  108  A    between atoms: _265  and  _266
REMARK  109  A    between atoms: _271  and  _273
REMARK  110  A    between atoms: _273  and  _274
REMARK  111  A    between atoms: _273  and  _276
REMARK  112  A    between atoms: _279  and  _281
REMARK  113  A    between atoms: _281  and  _282
REMARK  114  A    between atoms: _281  and  _284
REMARK  115  A    between atoms: _284  and  _285
REMARK  116  A    between atoms: _288  and  _290
REMARK  117  A    between atoms: _290  and  _291
REMARK  118  A    between atoms: _290  and  _293
REMARK  119  A    between atoms: _296  and  _298
REMARK  120  A    between atoms: _298  and  _299
REMARK  121  A    between atoms: _298  and  _301
REMARK  122  A    between atoms: _301  and  _302
REMARK  123  A    between atoms: _305  and  _307
REMARK  124  A    between atoms: _307  and  _308
REMARK  125  A    between atoms: _311  and  _313
REMARK  126  A    between atoms: _313  and  _314
REMARK  127  A    between atoms: _313  and  _316
REMARK  128  A    between atoms: _319  and  _321
REMARK  129  A    between atoms: _321  and  _322
REMARK  130  A    between atoms: _325  and  _327
REMARK  131  A    between atoms: _327  and  _328
REMARK  132  A    between atoms: _331  and  _333
REMARK  133  A    between atoms: _333  and  _334
REMARK  134  A    between atoms: _333  and  _336
REMARK  135  A    between atoms: _336  and  _337
REMARK  136  A    between atoms: _342  and  _343
REMARK  137  A    between atoms: _345  and  _347
REMARK  138  A    between atoms: _347  and  _348
REMARK  139  A    between atoms: _347  and  _350
REMARK  140  A    between atoms: _350  and  _351
REMARK  141  A    between atoms: _351  and  _352
REMARK  142  A    between atoms: _352  and  _353
REMARK  143  A    between atoms: _353  and  _354
REMARK  144  A    between atoms: _358  and  _360
REMARK  145  A    between atoms: _360  and  _361
REMARK  146  A    between atoms: _360  and  _363
REMARK  147  A    between atoms: _363  and  _364
REMARK  148  A    between atoms: _366  and  _368
REMARK  149  A    between atoms: _368  and  _369
REMARK  150  A    between atoms: _368  and  _371
REMARK  151  A    between atoms: _371  and  _372
REMARK  152  A    between atoms: _378  and  _380
REMARK  153  A    between atoms: _380  and  _381
REMARK  154  A    between atoms: _380  and  _383
REMARK  155  A    between atoms: _383  and  _384
REMARK  156  A    between atoms: _387  and  _389
REMARK  157  A    between atoms: _389  and  _390
REMARK  158  A    between atoms: _389  and  _392
REMARK  159  A    between atoms: _395  and  _397
REMARK  160  A    between atoms: _397  and  _398
REMARK  161  A    between atoms: _397  and  _400
REMARK  162  A    between atoms: _400  and  _401
REMARK  163  A    between atoms: _401  and  _402
REMARK  164  A    between atoms: _407  and  _409
REMARK  165  A    between atoms: _409  and  _410
REMARK  166  A    between atoms: _409  and  _412
REMARK  167  A    between atoms: _415  and  _417
REMARK  168  A    between atoms: _417  and  _418
REMARK  169  A    between atoms: _420  and  _422
REMARK  170  A    between atoms: _422  and  _423
REMARK  171  A    between atoms: _422  and  _425
REMARK  172  A    between atoms: _425  and  _426
REMARK  173  A    between atoms: _429  and  _431
REMARK  174  A    between atoms: _431  and  _432
REMARK  175  A    between atoms: _431  and  _434
REMARK  176  A    between atoms: _434  and  _435
REMARK  177  A    between atoms: _440  and  _442
REMARK  178  A    between atoms: _442  and  _443
REMARK  179  A    between atoms: _446  and  _448
REMARK  180  A    between atoms: _448  and  _449
REMARK  181  A    between atoms: _448  and  _451
REMARK  182  A    between atoms: _451  and  _452
REMARK  183  A    between atoms: _457  and  _459
REMARK  184  A    between atoms: _459  and  _460
REMARK  185  A    between atoms: _459  and  _462
REMARK  186  A    between atoms: _462  and  _463
REMARK  187  A    between atoms: _473  and  _475
REMARK  188  A    between atoms: _475  and  _476
REMARK  189  A    between atoms: _475  and  _478
REMARK  190  A    between atoms: _478  and  _479
REMARK  191  A    between atoms: _482  and  _484
REMARK  192  A    between atoms: _484  and  _485
REMARK  193  A    between atoms: _488  and  _490
REMARK  194  A    between atoms: _490  and  _491
REMARK  195  A    between atoms: _490  and  _493
REMARK  196  A    between atoms: _493  and  _494
REMARK  197  A    between atoms: _496  and  _498
REMARK  198  A    between atoms: _498  and  _499
REMARK  199  A    between atoms: _498  and  _501
REMARK  200  A    between atoms: _501  and  _502
REMARK  201  A    between atoms: _502  and  _503
REMARK  202  A    between atoms: _506  and  _508
REMARK  203  A    between atoms: _508  and  _509
REMARK  204  A    between atoms: _508  and  _511
REMARK  205  A    between atoms: _511  and  _512
REMARK  206  A    between atoms: _512  and  _513
REMARK  207  A    between atoms: _516  and  _518
REMARK  208  A    between atoms: _518  and  _519
REMARK  209  A    between atoms: _518  and  _521
REMARK  210  A    between atoms: _521  and  _522
REMARK  211  A    between atoms: _522  and  _523
REMARK  212  A    between atoms: _523  and  _524
REMARK  213  A    between atoms: _533  and  _535
REMARK  214  A    between atoms: _535  and  _536
REMARK  215  A    between atoms: _539  and  _541
REMARK  216  A    between atoms: _541  and  _542
REMARK  217  A    between atoms: _541  and  _544
REMARK  218  A    between atoms: _544  and  _545
REMARK  219  A    between atoms: _545  and  _546
REMARK  220  A    between atoms: _549  and  _551
REMARK  221  A    between atoms: _551  and  _552
REMARK  222  A    between atoms: _554  and  _556
REMARK  223  A    between atoms: _556  and  _557
REMARK  224  A    between atoms: _556  and  _559
REMARK  225  A    between atoms: _559  and  _560
REMARK  226  A    between atoms: _565  and  _567
REMARK  227  A    between atoms: _567  and  _568
REMARK  228  A    between atoms: _567  and  _570
REMARK  229  A    between atoms: _570  and  _571
REMARK  230  A    between atoms: _576  and  _578
REMARK  231  A    between atoms: _578  and  _579
REMARK  232  A    between atoms: _578  and  _581
REMARK  233  A    between atoms: _581  and  _582
REMARK  234  A    between atoms: _582  and  _583
REMARK  235  A    between atoms: _585  and  _587
REMARK  236  A    between atoms: _587  and  _588
REMARK  237  A    between atoms: _587  and  _590
REMARK  238  A    between atoms: _590  and  _591
REMARK  239  A    between atoms: _591  and  _592
REMARK  240  A    between atoms: _597  and  _599
REMARK  241  A    between atoms: _599  and  _600
REMARK  242  A    between atoms: _603  and  _605
REMARK  243  A    between atoms: _605  and  _606
REMARK  244  A    between atoms: _605  and  _608
REMARK  245  A    between atoms: _608  and  _609
REMARK  246  A    between atoms: _614  and  _616
REMARK  247  A    between atoms: _616  and  _617
REMARK  248  A    between atoms: _616  and  _619
REMARK  249  A    between atoms: _619  and  _620
REMARK  250  A    between atoms: _620  and  _621
REMARK  251  A    between atoms: _623  and  _625
REMARK  252  A    between atoms: _625  and  _626
REMARK  253  A    between atoms: _625  and  _628
REMARK  254  A    between atoms: _628  and  _629
REMARK  255  A    between atoms: _629  and  _630
REMARK  256  A    between atoms: _630  and  _631
REMARK  257  A    between atoms: _640  and  _642
REMARK  258  A    between atoms: _642  and  _643
REMARK  259  A    between atoms: _642  and  _645
REMARK  260  A    between atoms: _645  and  _646
REMARK  261  A    between atoms: _646  and  _647
REMARK  262  A    between atoms: _647  and  _648
REMARK  263  A    between atoms: _648  and  _649
REMARK  264  A    between atoms: _653  and  _655
REMARK  265  A    between atoms: _655  and  _656
REMARK  266  A    between atoms: _655  and  _658
REMARK  267  A    between atoms: _658  and  _659
REMARK  268  A    between atoms: _661  and  _663
REMARK  269  A    between atoms: _663  and  _664
REMARK  270  A    between atoms: _663  and  _666
REMARK  271  A    between atoms: _666  and  _667
REMARK  272  A    between atoms: _667  and  _668
REMARK  273  A    between atoms: _668  and  _669
REMARK  274  A    between atoms: _678  and  _680
REMARK  275  A    between atoms: _680  and  _681
REMARK  276  A    between atoms: _680  and  _683
REMARK  277  A    between atoms: _683  and  _684
REMARK  278  A    between atoms: _684  and  _685
REMARK  279  A    between atoms: _685  and  _686
REMARK  280  A    between atoms: _686  and  _687
REMARK  281  A    between atoms: _691  and  _693
REMARK  282  A    between atoms: _693  and  _694
REMARK  283  A    between atoms: _693  and  _696
REMARK  284  A    between atoms: _696  and  _697
REMARK  285  A    between atoms: _700  and  _702
REMARK  286  A    between atoms: _702  and  _703
REMARK  287  A    between atoms: _702  and  _705
REMARK  288  A    between atoms: _705  and  _706
REMARK                            x       y       z     vdW  Elec       q    Type
REMARK                         _______ _______ _______ _____ _____    ______ ____
ROOT
ATOM      1  CA  GLU A   1      16.816   5.537  52.868  0.00  0.00    +0.134 C 
ENDROOT
BRANCH   1   2
ATOM      2  N   GLU A   1      16.611   5.119  54.246  0.00  0.00    -0.239 NA
ATOM      3  H   GLU A   1      17.422   4.784  54.804  0.00  0.00    +0.142 HD
ENDBRANCH   1   2
BRANCH   1   4
ATOM      4  C   GLU A   1      18.039   4.880  52.242  0.00  0.00    +0.224 C 
ATOM      5  O   GLU A   1      18.955   4.427  52.934  0.00  0.00    -0.287 OA
ENDBRANCH   1   4
BRANCH   1   6
ATOM      6  CB  GLU A   1      16.888   7.065  52.751  0.00  0.00    +0.037 C 
BRANCH   6   7
ATOM      7  CG  GLU A   1      17.864   7.730  53.705  0.00  0.00    +0.116 C 
BRANCH   7   8
ATOM      8  CD  GLU A   1      17.863   9.258  53.595  0.00  0.00    +0.365 C 
ATOM      9  OE2 GLU A   1      18.559   9.911  54.403  0.00  0.00    -0.246 OA
ATOM     10  OE1 GLU A   1      17.170   9.810  52.709  0.00  0.00    -0.246 OA
ENDBRANCH   7   8
ENDBRANCH   6   7
ENDBRANCH   1   6
TORSDOF 5
REMARK  Name = ../refined-set-2016/3t6b/3t6b_pocket.pdb
REMARK  288 active torsions:
REMARK  status: ('A' for Active; 'I' for Inactive)
REMARK    1  A    between atoms: _1  and  _3
REMARK    2  A    between atoms: _3  and  _4
REMARK    3  A    between atoms: _6  and  _8
REMARK    4  A    between atoms: _8  and  _9
REMARK    5  A    between atoms: _8  and  _11
REMARK    6  A    between atoms: _11  and  _12
REMARK    7  A    between atoms: _14  and  _16
REMARK    8  A    between atoms: _16  and  _17
REMARK    9  A    between atoms: _16  and  _19
REMARK   10  A    between atoms: _19  and  _20
REMARK   11  A    between atoms: _23  and  _25
REMARK   12  A    between atoms: _25  and  _26
REMARK   13  A    between atoms: _25  and  _28
REMARK   14  A    between atoms: _28  and  _29
REMARK   15  A    between atoms: _31  and  _33
REMARK   16  A    between atoms: _33  and  _34
REMARK   17  A    between atoms: _33  and  _36
REMARK   18  A    between atoms: _36  and  _37
REMARK   19  A    between atoms: _43  and  _45
REMARK   20  A    between atoms: _45  and  _46
REMARK   21  A    between atoms: _45  and  _48
REMARK   22  A    between atoms: _48  and  _49
REMARK   23  A    between atoms: _54  and  _55
REMARK   24  A    between atoms: _57  and  _59
REMARK   25  A    between atoms: _59  and  _60
REMARK   26  A    between atoms: _59  and  _62
REMARK   27  A    between atoms: _62  and  _63
REMARK   28  A    between atoms: _66  and  _68
REMARK   29  A    between atoms: _68  and  _69
REMARK   30  A    between atoms: _68  and  _71
REMARK   31  A    between atoms: _71  and  _72
REMARK   32  A    between atoms: _72  and  _73
REMARK   33  A    between atoms: _76  and  _78
REMARK   34  A    between atoms: _78  and  _79
REMARK   35  A    between atoms: _78  and  _81
REMARK   36  A    between atoms: _81  and  _82
REMARK   37  A    between atoms: _84  and  _86
REMARK   38  A    between atoms: _86  and  _87
REMARK   39  A    between atoms: _86  and  _89
REMARK   40  A    between atoms: _89  and  _90
REMARK   41  A    between atoms: _95  and  _96
REMARK   42  A    between atoms: _98  and  _100
REMARK   43  A    between atoms: _100  and  _101
REMARK   44  A    between atoms: _100  and  _103
REMARK   45  A    between atoms: _103  and  _104
REMARK   46  A    between atoms: _104  and  _105
REMARK   47  A    between atoms: _108  and  _110
REMARK   48  A    between atoms: _110  and  _111
REMARK   49  A    between atoms: _110  and  _113
REMARK   50  A    between atoms: _113  and  _114
REMARK   51  A    between atoms: _120  and  _122
REMARK   52  A    between atoms: _122  and  _123
REMARK   53  A    between atoms: _122  and  _125
REMARK   54  A    between atoms: _125  and  _126
REMARK   55  A    between atoms: _128  and  _130
REMARK   56  A    between atoms: _130  and  _131
REMARK   57  A    between atoms: _133  and  _135
REMARK   58  A    between atoms: _135  and  _136
REMARK   59  A    between atoms: _135  and  _138
REMARK   60  A    between atoms: _138  and  _139
REMARK   61  A    between atoms: _143  and  _144
REMARK   62  A    between atoms: _149  and  _151
REMARK   63  A    between atoms: _151  and  _152
REMARK   64  A    between atoms: _155  and  _157
REMARK   65  A    between atoms: _157  and  _158
REMARK   66  A    between atoms: _160  and  _162
REMARK   67  A    between atoms: _162  and  _163
REMARK   68  A    between atoms: _162  and  _165
REMARK   69  A    between atoms: _165  and  _166
REMARK   70  A    between atoms: _169  and  _171
REMARK   71  A    between atoms: _171  and  _172
REMARK   72  A    between atoms: _171  and  _174
REMARK   73  A    between atoms: _174  and  _175
REMARK   74  A    between atoms: _180  and  _182
REMARK   75  A    between atoms: _182  and  _183
REMARK   76  A    between atoms: _182  and  _185
REMARK   77  A    between atoms: _185  and  _186
REMARK   78  A    between atoms: _190  and  _191
REMARK   79  A    between atoms: _196  and  _198
REMARK   80  A    between atoms: _198  and  _199
REMARK   81  A    between atoms: _198  and  _201
REMARK   82  A    between atoms: _201  and  _202
REMARK   83  A    between atoms: _207  and  _209
REMARK   84  A    between atoms: _209  and  _210
REMARK   85  A    between atoms: _209  and  _212
REMARK   86  A    between atoms: _212  and  _213
REMARK   87  A    between atoms: _218  and  _219
REMARK   88  A    between atoms: _221  and  _223
REMARK   89  A    between atoms: _223  and  _224
REMARK   90  A    between atoms: _223  and  _226
REMARK   91  A    between atoms: _226  and  _227
REMARK   92  A    between atoms: _230  and  _232
REMARK   93  A    between atoms: _232  and  _233
REMARK   94  A    between atoms: _232  and  _235
REMARK   95  A    between atoms: _235  and  _236
REMARK   96  A    between atoms: _236  and  _237
REMARK   97  A    between atoms: _237  and  _238
REMARK   98  A    between atoms: _247  and  _249
REMARK   99  A    between atoms: _249  and  _250
REMARK  100  A    between atoms: _249  and  _252
REMARK  101  A    between atoms: _252  and  _253
REMARK  102  A    between atoms: _253  and  _254
REMARK  103  A    between atoms: _254  and  _255
REMARK  104  A    between atoms: _255  and  _256
REMARK  105  A    between atoms: _260  and  _262
REMARK  106  A    between atoms: _262  and  _263
REMARK  107  A    between atoms: _262  and  _265
REMARK  108  A    between atoms: _265  and  _266
REMARK  109  A    between atoms: _271  and  _273
REMARK  110  A    between atoms: _273  and  _274
REMARK  111  A    between atoms: _273  and  _276
REMARK  112  A    between atoms: _279  and  _281
REMARK  113  A    between atoms: _281  and  _282
REMARK  114  A    between atoms: _281  and  _284
REMARK  115  A    between atoms: _284  and  _285
REMARK  116  A    between atoms: _288  and  _290
REMARK  117  A    between atoms: _290  and  _291
REMARK  118  A    between atoms: _290  and  _293
REMARK  119  A    between atoms: _296  and  _298
REMARK  120  A    between atoms: _298  and  _299
REMARK  121  A    between atoms: _298  and  _301
REMARK  122  A    between atoms: _301  and  _302
REMARK  123  A    between atoms: _305  and  _307
REMARK  124  A    between atoms: _307  and  _308
REMARK  125  A    between atoms: _311  and  _313
REMARK  126  A    between atoms: _313  and  _314
REMARK  127  A    between atoms: _313  and  _316
REMARK  128  A    between atoms: _319  and  _321
REMARK  129  A    between atoms: _321  and  _322
REMARK  130  A    between atoms: _325  and  _327
REMARK  131  A    between atoms: _327  and  _328
REMARK  132  A    between atoms: _331  and  _333
REMARK  133  A    between atoms: _333  and  _334
REMARK  134  A    between atoms: _333  and  _336
REMARK  135  A    between atoms: _336  and  _337
REMARK  136  A    between atoms: _342  and  _343
REMARK  137  A    between atoms: _345  and  _347
REMARK  138  A    between atoms: _347  and  _348
REMARK  139  A    between atoms: _347  and  _350
REMARK  140  A    between atoms: _350  and  _351
REMARK  141  A    between atoms: _351  and  _352
REMARK  142  A    between atoms: _352  and  _353
REMARK  143  A    between atoms: _353  and  _354
REMARK  144  A    between atoms: _358  and  _360
REMARK  145  A    between atoms: _360  and  _361
REMARK  146  A    between atoms: _360  and  _363
REMARK  147  A    between atoms: _363  and  _364
REMARK  148  A    between atoms: _366  and  _368
REMARK  149  A    between atoms: _368  and  _369
REMARK  150  A    between atoms: _368  and  _371
REMARK  151  A    between atoms: _371  and  _372
REMARK  152  A    between atoms: _378  and  _380
REMARK  153  A    between atoms: _380  and  _381
REMARK  154  A    between atoms: _380  and  _383
REMARK  155  A    between atoms: _383  and  _384
REMARK  156  A    between atoms: _387  and  _389
REMARK  157  A    between atoms: _389  and  _390
REMARK  158  A    between atoms: _389  and  _392
REMARK  159  A    between atoms: _395  and  _397
REMARK  160  A    between atoms: _397  and  _398
REMARK  161  A    between atoms: _397  and  _400
REMARK  162  A    between atoms: _400  and  _401
REMARK  163  A    between atoms: _401  and  _402
REMARK  164  A    between atoms: _407  and  _409
REMARK  165  A    between atoms: _409  and  _410
REMARK  166  A    between atoms: _409  and  _412
REMARK  167  A    between atoms: _415  and  _417
REMARK  168  A    between atoms: _417  and  _418
REMARK  169  A    between atoms: _420  and  _422
REMARK  170  A    between atoms: _422  and  _423
REMARK  171  A    between atoms: _422  and  _425
REMARK  172  A    between atoms: _425  and  _426
REMARK  173  A    between atoms: _429  and  _431
REMARK  174  A    between atoms: _431  and  _432
REMARK  175  A    between atoms: _431  and  _434
REMARK  176  A    between atoms: _434  and  _435
REMARK  177  A    between atoms: _440  and  _442
REMARK  178  A    between atoms: _442  and  _443
REMARK  179  A    between atoms: _446  and  _448
REMARK  180  A    between atoms: _448  and  _449
REMARK  181  A    between atoms: _448  and  _451
REMARK  182  A    between atoms: _451  and  _452
REMARK  183  A    between atoms: _457  and  _459
REMARK  184  A    between atoms: _459  and  _460
REMARK  185  A    between atoms: _459  and  _462
REMARK  186  A    between atoms: _462  and  _463
REMARK  187  A    between atoms: _473  and  _475
REMARK  188  A    between atoms: _475  and  _476
REMARK  189  A    between atoms: _475  and  _478
REMARK  190  A    between atoms: _478  and  _479
REMARK  191  A    between atoms: _482  and  _484
REMARK  192  A    between atoms: _484  and  _485
REMARK  193  A    between atoms: _488  and  _490
REMARK  194  A    between atoms: _490  and  _491
REMARK  195  A    between atoms: _490  and  _493
REMARK  196  A    between atoms: _493  and  _494
REMARK  197  A    between atoms: _496  and  _498
REMARK  198  A    between atoms: _498  and  _499
REMARK  199  A    between atoms: _498  and  _501
REMARK  200  A    between atoms: _501  and  _502
REMARK  201  A    between atoms: _502  and  _503
REMARK  202  A    between atoms: _506  and  _508
REMARK  203  A    between atoms: _508  and  _509
REMARK  204  A    between atoms: _508  and  _511
REMARK  205  A    between atoms: _511  and  _512
REMARK  206  A    between atoms: _512  and  _513
REMARK  207  A    between atoms: _516  and  _518
REMARK  208  A    between atoms: _518  and  _519
REMARK  209  A    between atoms: _518  and  _521
REMARK  210  A    between atoms: _521  and  _522
REMARK  211  A    between atoms: _522  and  _523
REMARK  212  A    between atoms: _523  and  _524
REMARK  213  A    between atoms: _533  and  _535
REMARK  214  A    between atoms: _535  and  _536
REMARK  215  A    between atoms: _539  and  _541
REMARK  216  A    between atoms: _541  and  _542
REMARK  217  A    between atoms: _541  and  _544
REMARK  218  A    between atoms: _544  and  _545
REMARK  219  A    between atoms: _545  and  _546
REMARK  220  A    between atoms: _549  and  _551
REMARK  221  A    between atoms: _551  and  _552
REMARK  222  A    between atoms: _554  and  _556
REMARK  223  A    between atoms: _556  and  _557
REMARK  224  A    between atoms: _556  and  _559
REMARK  225  A    between atoms: _559  and  _560
REMARK  226  A    between atoms: _565  and  _567
REMARK  227  A    between atoms: _567  and  _568
REMARK  228  A    between atoms: _567  and  _570
REMARK  229  A    between atoms: _570  and  _571
REMARK  230  A    between atoms: _576  and  _578
REMARK  231  A    between atoms: _578  and  _579
REMARK  232  A    between atoms: _578  and  _581
REMARK  233  A    between atoms: _581  and  _582
REMARK  234  A    between atoms: _582  and  _583
REMARK  235  A    between atoms: _585  and  _587
REMARK  236  A    between atoms: _587  and  _588
REMARK  237  A    between atoms: _587  and  _590
REMARK  238  A    between atoms: _590  and  _591
REMARK  239  A    between atoms: _591  and  _592
REMARK  240  A    between atoms: _597  and  _599
REMARK  241  A    between atoms: _599  and  _600
REMARK  242  A    between atoms: _603  and  _605
REMARK  243  A    between atoms: _605  and  _606
REMARK  244  A    between atoms: _605  and  _608
REMARK  245  A    between atoms: _608  and  _609
REMARK  246  A    between atoms: _614  and  _616
REMARK  247  A    between atoms: _616  and  _617
REMARK  248  A    between atoms: _616  and  _619
REMARK  249  A    between atoms: _619  and  _620
REMARK  250  A    between atoms: _620  and  _621
REMARK  251  A    between atoms: _623  and  _625
REMARK  252  A    between atoms: _625  and  _626
REMARK  253  A    between atoms: _625  and  _628
REMARK  254  A    between atoms: _628  and  _629
REMARK  255  A    between atoms: _629  and  _630
REMARK  256  A    between atoms: _630  and  _631
REMARK  257  A    between atoms: _640  and  _642
REMARK  258  A    between atoms: _642  and  _643
REMARK  259  A    between atoms: _642  and  _645
REMARK  260  A    between atoms: _645  and  _646
REMARK  261  A    between atoms: _646  and  _647
REMARK  262  A    between atoms: _647  and  _648
REMARK  263  A    between atoms: _648  and  _649
REMARK  264  A    between atoms: _653  and  _655
REMARK  265  A    between atoms: _655  and  _656
REMARK  266  A    between atoms: _655  and  _658
REMARK  267  A    between atoms: _658  and  _659
REMARK  268  A    between atoms: _661  and  _663
REMARK  269  A    between atoms: _663  and  _664
REMARK  270  A    between atoms: _663  and  _666
REMARK  271  A    between atoms: _666  and  _667
REMARK  272  A    between atoms: _667  and  _668
REMARK  273  A    between atoms: _668  and  _669
REMARK  274  A    between atoms: _678  and  _680
REMARK  275  A    between atoms: _680  and  _681
REMARK  276  A    between atoms: _680  and  _683
REMARK  277  A    between atoms: _683  and  _684
REMARK  278  A    between atoms: _684  and  _685
REMARK  279  A    between atoms: _685  and  _686
REMARK  280  A    between atoms: _686  and  _687
REMARK  281  A    between atoms: _691  and  _693
REMARK  282  A    between atoms: _693  and  _694
REMARK  283  A    between atoms: _693  and  _696
REMARK  284  A    between atoms: _696  and  _697
REMARK  285  A    between atoms: _700  and  _702
REMARK  286  A    between atoms: _702  and  _703
REMARK  287  A    between atoms: _702  and  _705
REMARK  288  A    between atoms: _705  and  _706
REMARK                            x       y       z     vdW  Elec       q    Type
REMARK                         _______ _______ _______ _____ _____    ______ ____
ROOT
ATOM      1  CB  PHE A   1      16.956   8.848  45.555  0.00  0.00    +0.051 C 
ENDROOT
BRANCH   1   2
ATOM      2  CG  PHE A   1      17.495   9.363  46.859  0.00  0.00    -0.020 A 
ATOM      3  CD2 PHE A   1      16.766   9.211  48.031  0.00  0.00    -0.004 A 
ATOM      4  CE2 PHE A   1      17.261   9.665  49.243  0.00  0.00    -0.000 A 
ATOM      5  CZ  PHE A   1      18.499  10.268  49.294  0.00  0.00    -0.000 A 
ATOM      6  CE1 PHE A   1      19.239  10.420  48.133  0.00  0.00    -0.000 A 
ATOM      7  CD1 PHE A   1      18.737   9.964  46.924  0.00  0.00    -0.004 A 
ENDBRANCH   1   2
BRANCH   1   8
ATOM      8  CA  PHE A   1      16.821   7.323  45.522  0.00  0.00    +0.137 C 
BRANCH   8   9
ATOM      9  N   PHE A   1      16.878   6.791  44.169  0.00  0.00    -0.239 NA
ATOM     10  H   PHE A   1      16.076   6.922  43.520  0.00  0.00    +0.142 HD
ENDBRANCH   8   9
BRANCH   8  11
ATOM     11  C   PHE A   1      15.524   6.891  46.175  0.00  0.00    +0.224 C 
ATOM     12  O   PHE A   1      14.451   7.371  45.815  0.00  0.00    -0.287 OA
ENDBRANCH   8  11
ENDBRANCH   1   8
TORSDOF 4
REMARK  Name = ../refined-set-2016/3t6b/3t6b_pocket.pdb
REMARK  288 active torsions:
REMARK  status: ('A' for Active; 'I' for Inactive)
REMARK    1  A    between atoms: _1  and  _3
REMARK    2  A    between atoms: _3  and  _4
REMARK    3  A    between atoms: _6  and  _8
REMARK    4  A    between atoms: _8  and  _9
REMARK    5  A    between atoms: _8  and  _11
REMARK    6  A    between atoms: _11  and  _12
REMARK    7  A    between atoms: _14  and  _16
REMARK    8  A    between atoms: _16  and  _17
REMARK    9  A    between atoms: _16  and  _19
REMARK   10  A    between atoms: _19  and  _20
REMARK   11  A    between atoms: _23  and  _25
REMARK   12  A    between atoms: _25  and  _26
REMARK   13  A    between atoms: _25  and  _28
REMARK   14  A    between atoms: _28  and  _29
REMARK   15  A    between atoms: _31  and  _33
REMARK   16  A    between atoms: _33  and  _34
REMARK   17  A    between atoms: _33  and  _36
REMARK   18  A    between atoms: _36  and  _37
REMARK   19  A    between atoms: _43  and  _45
REMARK   20  A    between atoms: _45  and  _46
REMARK   21  A    between atoms: _45  and  _48
REMARK   22  A    between atoms: _48  and  _49
REMARK   23  A    between atoms: _54  and  _55
REMARK   24  A    between atoms: _57  and  _59
REMARK   25  A    between atoms: _59  and  _60
REMARK   26  A    between atoms: _59  and  _62
REMARK   27  A    between atoms: _62  and  _63
REMARK   28  A    between atoms: _66  and  _68
REMARK   29  A    between atoms: _68  and  _69
REMARK   30  A    between atoms: _68  and  _71
REMARK   31  A    between atoms: _71  and  _72
REMARK   32  A    between atoms: _72  and  _73
REMARK   33  A    between atoms: _76  and  _78
REMARK   34  A    between atoms: _78  and  _79
REMARK   35  A    between atoms: _78  and  _81
REMARK   36  A    between atoms: _81  and  _82
REMARK   37  A    between atoms: _84  and  _86
REMARK   38  A    between atoms: _86  and  _87
REMARK   39  A    between atoms: _86  and  _89
REMARK   40  A    between atoms: _89  and  _90
REMARK   41  A    between atoms: _95  and  _96
REMARK   42  A    between atoms: _98  and  _100
REMARK   43  A    between atoms: _100  and  _101
REMARK   44  A    between atoms: _100  and  _103
REMARK   45  A    between atoms: _103  and  _104
REMARK   46  A    between atoms: _104  and  _105
REMARK   47  A    between atoms: _108  and  _110
REMARK   48  A    between atoms: _110  and  _111
REMARK   49  A    between atoms: _110  and  _113
REMARK   50  A    between atoms: _113  and  _114
REMARK   51  A    between atoms: _120  and  _122
REMARK   52  A    between atoms: _122  and  _123
REMARK   53  A    between atoms: _122  and  _125
REMARK   54  A    between atoms: _125  and  _126
REMARK   55  A    between atoms: _128  and  _130
REMARK   56  A    between atoms: _130  and  _131
REMARK   57  A    between atoms: _133  and  _135
REMARK   58  A    between atoms: _135  and  _136
REMARK   59  A    between atoms: _135  and  _138
REMARK   60  A    between atoms: _138  and  _139
REMARK   61  A    between atoms: _143  and  _144
REMARK   62  A    between atoms: _149  and  _151
REMARK   63  A    between atoms: _151  and  _152
REMARK   64  A    between atoms: _155  and  _157
REMARK   65  A    between atoms: _157  and  _158
REMARK   66  A    between atoms: _160  and  _162
REMARK   67  A    between atoms: _162  and  _163
REMARK   68  A    between atoms: _162  and  _165
REMARK   69  A    between atoms: _165  and  _166
REMARK   70  A    between atoms: _169  and  _171
REMARK   71  A    between atoms: _171  and  _172
REMARK   72  A    between atoms: _171  and  _174
REMARK   73  A    between atoms: _174  and  _175
REMARK   74  A    between atoms: _180  and  _182
REMARK   75  A    between atoms: _182  and  _183
REMARK   76  A    between atoms: _182  and  _185
REMARK   77  A    between atoms: _185  and  _186
REMARK   78  A    between atoms: _190  and  _191
REMARK   79  A    between atoms: _196  and  _198
REMARK   80  A    between atoms: _198  and  _199
REMARK   81  A    between atoms: _198  and  _201
REMARK   82  A    between atoms: _201  and  _202
REMARK   83  A    between atoms: _207  and  _209
REMARK   84  A    between atoms: _209  and  _210
REMARK   85  A    between atoms: _209  and  _212
REMARK   86  A    between atoms: _212  and  _213
REMARK   87  A    between atoms: _218  and  _219
REMARK   88  A    between atoms: _221  and  _223
REMARK   89  A    between atoms: _223  and  _224
REMARK   90  A    between atoms: _223  and  _226
REMARK   91  A    between atoms: _226  and  _227
REMARK   92  A    between atoms: _230  and  _232
REMARK   93  A    between atoms: _232  and  _233
REMARK   94  A    between atoms: _232  and  _235
REMARK   95  A    between atoms: _235  and  _236
REMARK   96  A    between atoms: _236  and  _237
REMARK   97  A    between atoms: _237  and  _238
REMARK   98  A    between atoms: _247  and  _249
REMARK   99  A    between atoms: _249  and  _250
REMARK  100  A    between atoms: _249  and  _252
REMARK  101  A    between atoms: _252  and  _253
REMARK  102  A    between atoms: _253  and  _254
REMARK  103  A    between atoms: _254  and  _255
REMARK  104  A    between atoms: _255  and  _256
REMARK  105  A    between atoms: _260  and  _262
REMARK  106  A    between atoms: _262  and  _263
REMARK  107  A    between atoms: _262  and  _265
REMARK  108  A    between atoms: _265  and  _266
REMARK  109  A    between atoms: _271  and  _273
REMARK  110  A    between atoms: _273  and  _274
REMARK  111  A    between atoms: _273  and  _276
REMARK  112  A    between atoms: _279  and  _281
REMARK  113  A    between atoms: _281  and  _282
REMARK  114  A    between atoms: _281  and  _284
REMARK  115  A    between atoms: _284  and  _285
REMARK  116  A    between atoms: _288  and  _290
REMARK  117  A    between atoms: _290  and  _291
REMARK  118  A    between atoms: _290  and  _293
REMARK  119  A    between atoms: _296  and  _298
REMARK  120  A    between atoms: _298  and  _299
REMARK  121  A    between atoms: _298  and  _301
REMARK  122  A    between atoms: _301  and  _302
REMARK  123  A    between atoms: _305  and  _307
REMARK  124  A    between atoms: _307  and  _308
REMARK  125  A    between atoms: _311  and  _313
REMARK  126  A    between atoms: _313  and  _314
REMARK  127  A    between atoms: _313  and  _316
REMARK  128  A    between atoms: _319  and  _321
REMARK  129  A    between atoms: _321  and  _322
REMARK  130  A    between atoms: _325  and  _327
REMARK  131  A    between atoms: _327  and  _328
REMARK  132  A    between atoms: _331  and  _333
REMARK  133  A    between atoms: _333  and  _334
REMARK  134  A    between atoms: _333  and  _336
REMARK  135  A    between atoms: _336  and  _337
REMARK  136  A    between atoms: _342  and  _343
REMARK  137  A    between atoms: _345  and  _347
REMARK  138  A    between atoms: _347  and  _348
REMARK  139  A    between atoms: _347  and  _350
REMARK  140  A    between atoms: _350  and  _351
REMARK  141  A    between atoms: _351  and  _352
REMARK  142  A    between atoms: _352  and  _353
REMARK  143  A    between atoms: _353  and  _354
REMARK  144  A    between atoms: _358  and  _360
REMARK  145  A    between atoms: _360  and  _361
REMARK  146  A    between atoms: _360  and  _363
REMARK  147  A    between atoms: _363  and  _364
REMARK  148  A    between atoms: _366  and  _368
REMARK  149  A    between atoms: _368  and  _369
REMARK  150  A    between atoms: _368  and  _371
REMARK  151  A    between atoms: _371  and  _372
REMARK  152  A    between atoms: _378  and  _380
REMARK  153  A    between atoms: _380  and  _381
REMARK  154  A    between atoms: _380  and  _383
REMARK  155  A    between atoms: _383  and  _384
REMARK  156  A    between atoms: _387  and  _389
REMARK  157  A    between atoms: _389  and  _390
REMARK  158  A    between atoms: _389  and  _392
REMARK  159  A    between atoms: _395  and  _397
REMARK  160  A    between atoms: _397  and  _398
REMARK  161  A    between atoms: _397  and  _400
REMARK  162  A    between atoms: _400  and  _401
REMARK  163  A    between atoms: _401  and  _402
REMARK  164  A    between atoms: _407  and  _409
REMARK  165  A    between atoms: _409  and  _410
REMARK  166  A    between atoms: _409  and  _412
REMARK  167  A    between atoms: _415  and  _417
REMARK  168  A    between atoms: _417  and  _418
REMARK  169  A    between atoms: _420  and  _422
REMARK  170  A    between atoms: _422  and  _423
REMARK  171  A    between atoms: _422  and  _425
REMARK  172  A    between atoms: _425  and  _426
REMARK  173  A    between atoms: _429  and  _431
REMARK  174  A    between atoms: _431  and  _432
REMARK  175  A    between atoms: _431  and  _434
REMARK  176  A    between atoms: _434  and  _435
REMARK  177  A    between atoms: _440  and  _442
REMARK  178  A    between atoms: _442  and  _443
REMARK  179  A    between atoms: _446  and  _448
REMARK  180  A    between atoms: _448  and  _449
REMARK  181  A    between atoms: _448  and  _451
REMARK  182  A    between atoms: _451  and  _452
REMARK  183  A    between atoms: _457  and  _459
REMARK  184  A    between atoms: _459  and  _460
REMARK  185  A    between atoms: _459  and  _462
REMARK  186  A    between atoms: _462  and  _463
REMARK  187  A    between atoms: _473  and  _475
REMARK  188  A    between atoms: _475  and  _476
REMARK  189  A    between atoms: _475  and  _478
REMARK  190  A    between atoms: _478  and  _479
REMARK  191  A    between atoms: _482  and  _484
REMARK  192  A    between atoms: _484  and  _485
REMARK  193  A    between atoms: _488  and  _490
REMARK  194  A    between atoms: _490  and  _491
REMARK  195  A    between atoms: _490  and  _493
REMARK  196  A    between atoms: _493  and  _494
REMARK  197  A    between atoms: _496  and  _498
REMARK  198  A    between atoms: _498  and  _499
REMARK  199  A    between atoms: _498  and  _501
REMARK  200  A    between atoms: _501  and  _502
REMARK  201  A    between atoms: _502  and  _503
REMARK  202  A    between atoms: _506  and  _508
REMARK  203  A    between atoms: _508  and  _509
REMARK  204  A    between atoms: _508  and  _511
REMARK  205  A    between atoms: _511  and  _512
REMARK  206  A    between atoms: _512  and  _513
REMARK  207  A    between atoms: _516  and  _518
REMARK  208  A    between atoms: _518  and  _519
REMARK  209  A    between atoms: _518  and  _521
REMARK  210  A    between atoms: _521  and  _522
REMARK  211  A    between atoms: _522  and  _523
REMARK  212  A    between atoms: _523  and  _524
REMARK  213  A    between atoms: _533  and  _535
REMARK  214  A    between atoms: _535  and  _536
REMARK  215  A    between atoms: _539  and  _541
REMARK  216  A    between atoms: _541  and  _542
REMARK  217  A    between atoms: _541  and  _544
REMARK  218  A    between atoms: _544  and  _545
REMARK  219  A    between atoms: _545  and  _546
REMARK  220  A    between atoms: _549  and  _551
REMARK  221  A    between atoms: _551  and  _552
REMARK  222  A    between atoms: _554  and  _556
REMARK  223  A    between atoms: _556  and  _557
REMARK  224  A    between atoms: _556  and  _559
REMARK  225  A    between atoms: _559  and  _560
REMARK  226  A    between atoms: _565  and  _567
REMARK  227  A    between atoms: _567  and  _568
REMARK  228  A    between atoms: _567  and  _570
REMARK  229  A    between atoms: _570  and  _571
REMARK  230  A    between atoms: _576  and  _578
REMARK  231  A    between atoms: _578  and  _579
REMARK  232  A    between atoms: _578  and  _581
REMARK  233  A    between atoms: _581  and  _582
REMARK  234  A    between atoms: _582  and  _583
REMARK  235  A    between atoms: _585  and  _587
REMARK  236  A    between atoms: _587  and  _588
REMARK  237  A    between atoms: _587  and  _590
REMARK  238  A    between atoms: _590  and  _591
REMARK  239  A    between atoms: _591  and  _592
REMARK  240  A    between atoms: _597  and  _599
REMARK  241  A    between atoms: _599  and  _600
REMARK  242  A    between atoms: _603  and  _605
REMARK  243  A    between atoms: _605  and  _606
REMARK  244  A    between atoms: _605  and  _608
REMARK  245  A    between atoms: _608  and  _609
REMARK  246  A    between atoms: _614  and  _616
REMARK  247  A    between atoms: _616  and  _617
REMARK  248  A    between atoms: _616  and  _619
REMARK  249  A    between atoms: _619  and  _620
REMARK  250  A    between atoms: _620  and  _621
REMARK  251  A    between atoms: _623  and  _625
REMARK  252  A    between atoms: _625  and  _626
REMARK  253  A    between atoms: _625  and  _628
REMARK  254  A    between atoms: _628  and  _629
REMARK  255  A    between atoms: _629  and  _630
REMARK  256  A    between atoms: _630  and  _631
REMARK  257  A    between atoms: _640  and  _642
REMARK  258  A    between atoms: _642  and  _643
REMARK  259  A    between atoms: _642  and  _645
REMARK  260  A    between atoms: _645  and  _646
REMARK  261  A    between atoms: _646  and  _647
REMARK  262  A    between atoms: _647  and  _648
REMARK  263  A    between atoms: _648  and  _649
REMARK  264  A    between atoms: _653  and  _655
REMARK  265  A    between atoms: _655  and  _656
REMARK  266  A    between atoms: _655  and  _658
REMARK  267  A    between atoms: _658  and  _659
REMARK  268  A    between atoms: _661  and  _663
REMARK  269  A    between atoms: _663  and  _664
REMARK  270  A    between atoms: _663  and  _666
REMARK  271  A    between atoms: _666  and  _667
REMARK  272  A    between atoms: _667  and  _668
REMARK  273  A    between atoms: _668  and  _669
REMARK  274  A    between atoms: _678  and  _680
REMARK  275  A    between atoms: _680  and  _681
REMARK  276  A    between atoms: _680  and  _683
REMARK  277  A    between atoms: _683  and  _684
REMARK  278  A    between atoms: _684  and  _685
REMARK  279  A    between atoms: _685  and  _686
REMARK  280  A    between atoms: _686  and  _687
REMARK  281  A    between atoms: _691  and  _693
REMARK  282  A    between atoms: _693  and  _694
REMARK  283  A    between atoms: _693  and  _696
REMARK  284  A    between atoms: _696  and  _697
REMARK  285  A    between atoms: _700  and  _702
REMARK  286  A    between atoms: _702  and  _703
REMARK  287  A    between atoms: _702  and  _705
REMARK  288  A    between atoms: _705  and  _706
REMARK                            x       y       z     vdW  Elec       q    Type
REMARK                         _______ _______ _______ _____ _____    ______ ____
ROOT
ATOM      1  CA  ASN A   8      26.476  15.638  53.676  0.00  0.00    +0.158 C 
ENDROOT
BRANCH   1   3
ATOM      2  C   ILE A   7      25.261  15.674  51.562  0.00  0.00    +0.241 C 
ATOM      3  N   ASN A   8      25.258  15.647  52.887  0.00  0.00    -0.297 N 
ATOM      4  H   ASN A   8      24.344  15.632  53.383  0.00  0.00    +0.150 HD
ATOM      5  O   ILE A   7      26.286  15.766  50.886  0.00  0.00    -0.273 OA
BRANCH   2   6
ATOM      6  CA  ILE A   7      23.894  15.589  50.912  0.00  0.00    +0.149 C 
BRANCH   6   9
ATOM      7  C   GLY A   6      22.761  17.055  49.359  0.00  0.00    +0.243 C 
ATOM      8  O   GLY A   6      21.805  17.183  50.117  0.00  0.00    -0.273 OA
ATOM      9  N   ILE A   7      23.842  16.357  49.678  0.00  0.00    -0.297 N 
ATOM     10  H   ILE A   7      24.662  16.359  49.039  0.00  0.00    +0.150 HD
BRANCH   7  11
ATOM     11  CA  GLY A   6      22.748  17.693  47.991  0.00  0.00    +0.176 C 
BRANCH  11  13
ATOM     12  C   ALA A   5      21.058  17.950  46.284  0.00  0.00    +0.241 C 
ATOM     13  N   GLY A   6      21.381  17.925  47.569  0.00  0.00    -0.295 N 
ATOM     14  H   GLY A   6      20.642  18.074  48.286  0.00  0.00    +0.150 HD
ATOM     15  O   ALA A   5      21.884  17.774  45.390  0.00  0.00    -0.273 OA
BRANCH  12  16
ATOM     16  CA  ALA A   5      19.596  18.254  45.965  0.00  0.00    +0.149 C 
ATOM     17  CB  ALA A   5      19.377  19.751  45.889  0.00  0.00    +0.031 C 
BRANCH  16  19
ATOM     18  C   PRO A   4      18.191  16.405  46.791  0.00  0.00    +0.241 C 
ATOM     19  N   ALA A   5      18.657  17.650  46.907  0.00  0.00    -0.297 N 
ATOM     20  H   ALA A   5      18.334  18.222  47.713  0.00  0.00    +0.150 HD
ATOM     21  O   PRO A   4      18.401  15.684  45.811  0.00  0.00    -0.273 OA
BRANCH  18  27
ATOM     22  C   ILE A   3      15.548  14.534  47.063  0.00  0.00    +0.244 C 
ATOM     23  N   PRO A   4      16.742  14.580  47.661  0.00  0.00    -0.272 N 
ATOM     24  CD  PRO A   4      17.574  13.478  48.171  0.00  0.00    +0.094 C 
ATOM     25  CG  PRO A   4      18.715  14.198  48.868  0.00  0.00    +0.024 C 
ATOM     26  CB  PRO A   4      18.222  15.575  49.151  0.00  0.00    +0.031 C 
ATOM     27  CA  PRO A   4      17.331  15.885  47.951  0.00  0.00    +0.152 C 
ATOM     28  O   ILE A   3      14.927  15.547  46.763  0.00  0.00    -0.273 OA
BRANCH  22  29
ATOM     29  CA  ILE A   3      14.976  13.156  46.744  0.00  0.00    +0.149 C 
BRANCH  29  32
ATOM     30  C   GLY A   2      13.408  12.219  48.366  0.00  0.00    +0.243 C 
ATOM     31  O   GLY A   2      14.296  11.632  48.975  0.00  0.00    -0.273 OA
ATOM     32  N   ILE A   3      13.639  12.980  47.301  0.00  0.00    -0.297 N 
ATOM     33  H   ILE A   3      12.839  13.467  46.849  0.00  0.00    +0.150 HD
BRANCH  30  34
ATOM     34  CA  GLY A   2      11.961  12.115  48.807  0.00  0.00    +0.176 C 
BRANCH  34  36
ATOM     35  C   SER A   1      10.472  10.901  50.279  0.00  0.00    +0.241 C 
ATOM     36  N   GLY A   2      11.714  11.190  49.901  0.00  0.00    -0.295 N 
ATOM     37  H   GLY A   2      12.517  10.749  50.393  0.00  0.00    +0.150 HD
ATOM     38  O   SER A   1       9.489  11.397  49.739  0.00  0.00    -0.274 OA
BRANCH  35  39
ATOM     39  CA  SER A   1      10.299   9.901  51.429  0.00  0.00    +0.174 C 
BRANCH  39  40
ATOM     40  N   SER A   1      11.372   8.917  51.480  0.00  0.00    -0.236 NA
ATOM     41  H   SER A   1      12.027   8.923  52.288  0.00  0.00    +0.142 HD
ENDBRANCH  39  40
BRANCH  39  42
ATOM     42  CB  SER A   1      10.180  10.629  52.772  0.00  0.00    +0.163 C 
BRANCH  42  43
ATOM     43  OG  SER A   1      11.405  11.249  53.121  0.00  0.00    -0.380 OA
ATOM     44  H   SER A   1      11.652  11.906  52.423  0.00  0.00    +0.211 HD
ENDBRANCH  42  43
ENDBRANCH  39  42
ENDBRANCH  35  39
ENDBRANCH  34  36
ENDBRANCH  30  34
ENDBRANCH  29  32
BRANCH  29  45
ATOM     45  CB  ILE A   3      14.960  13.004  45.213  0.00  0.00    +0.027 C 
ATOM     46  CG2 ILE A   3      16.376  12.798  44.680  0.00  0.00    +0.002 C 
BRANCH  45  47
ATOM     47  CG1 ILE A   3      14.027  11.868  44.803  0.00  0.00    +0.002 C 
ATOM     48  CD1 ILE A   3      14.071  11.553  43.332  0.00  0.00    +0.000 C 
ENDBRANCH  45  47
ENDBRANCH  29  45
ENDBRANCH  22  29
ENDBRANCH  18  27
ENDBRANCH  16  19
ENDBRANCH  12  16
ENDBRANCH  11  13
ENDBRANCH   7  11
ENDBRANCH   6   9
BRANCH   6  49
ATOM     49  CB  ILE A   7      23.565  14.102  50.673  0.00  0.00    +0.027 C 
ATOM     50  CG2 ILE A   7      23.380  13.373  52.001  0.00  0.00    +0.002 C 
BRANCH  49  51
ATOM     51  CG1 ILE A   7      22.331  13.949  49.784  0.00  0.00    +0.002 C 
ATOM     52  CD1 ILE A   7      21.992  12.496  49.469  0.00  0.00    +0.000 C 
ENDBRANCH  49  51
ENDBRANCH   6  49
ENDBRANCH   2   6
ENDBRANCH   1   3
BRANCH   1  53
ATOM     53  C   ASN A   8      26.375  14.480  54.659  0.00  0.00    +0.241 C 
ATOM     54  O   ASN A   8      25.509  14.471  55.534  0.00  0.00    -0.273 OA
ATOM     55  N   ILE A   9      27.250  13.495  54.495  0.00  0.00    -0.297 N 
ATOM     56  H   ILE A   9      28.034  13.625  53.824  0.00  0.00    +0.150 HD
BRANCH  55  57
ATOM     57  CA  ILE A   9      27.147  12.238  55.225  0.00  0.00    +0.149 C 
BRANCH  57  58
ATOM     58  C   ILE A   9      28.516  11.662  55.567  0.00  0.00    +0.244 C 
ATOM     59  N   PRO A  10      28.573  10.787  56.584  0.00  0.00    -0.272 N 
ATOM     60  CA  PRO A  10      27.410  10.336  57.358  0.00  0.00    +0.152 C 
ATOM     61  CB  PRO A  10      27.885   9.002  57.934  0.00  0.00    +0.031 C 
ATOM     62  CG  PRO A  10      29.354   9.208  58.124  0.00  0.00    +0.024 C 
ATOM     63  CD  PRO A  10      29.797  10.060  56.959  0.00  0.00    +0.094 C 
ATOM     64  O   ILE A   9      29.507  11.990  54.918  0.00  0.00    -0.273 OA
BRANCH  60  65
ATOM     65  C   PRO A  10      27.041  11.286  58.495  0.00  0.00    +0.241 C 
ATOM     66  N   ASN A  11      25.971  10.957  59.210  0.00  0.00    -0.297 N 
ATOM     67  H   ASN A  11      25.508  10.044  59.025  0.00  0.00    +0.150 HD
ATOM     68  O   PRO A  10      27.731  12.270  58.733  0.00  0.00    -0.273 OA
BRANCH  66  69
ATOM     69  CA  ASN A  11      25.419  11.826  60.246  0.00  0.00    +0.158 C 
BRANCH  69  70
ATOM     70  C   ASN A  11      25.981  11.602  61.647  0.00  0.00    +0.241 C 
ATOM     71  O   ASN A  11      25.492  12.179  62.617  0.00  0.00    -0.273 OA
ATOM     72  N   TYR A  12      26.990  10.748  61.756  0.00  0.00    -0.297 N 
ATOM     73  H   TYR A  12      27.325  10.242  60.911  0.00  0.00    +0.150 HD
BRANCH  72  74
ATOM     74  CA  TYR A  12      27.635  10.507  63.036  0.00  0.00    +0.153 C 
BRANCH  74  75
ATOM     75  C   TYR A  12      28.759  11.523  63.208  0.00  0.00    +0.241 C 
ATOM     76  N   ASP A  13      28.638  12.385  64.213  0.00  0.00    -0.298 N 
ATOM     77  H   ASP A  13      27.867  12.261  64.900  0.00  0.00    +0.150 HD
ATOM     78  O   TYR A  12      29.723  11.521  62.444  0.00  0.00    -0.273 OA
BRANCH  76  79
ATOM     79  CA  ASP A  13      29.566  13.505  64.373  0.00  0.00    +0.148 C 
BRANCH  79  80
ATOM     80  C   ASP A  13      30.974  13.110  64.815  0.00  0.00    +0.227 C 
ATOM     81  O   ASP A  13      31.948  13.755  64.427  0.00  0.00    -0.286 OA
ENDBRANCH  79  80
BRANCH  79  82
ATOM     82  CB  ASP A  13      28.985  14.574  65.302  0.00  0.00    +0.142 C 
BRANCH  82  83
ATOM     83  CG  ASP A  13      27.861  15.360  64.648  0.00  0.00    +0.367 C 
ATOM     84  OD2 ASP A  13      26.714  15.290  65.139  0.00  0.00    -0.246 OA
ATOM     85  OD1 ASP A  13      28.127  16.052  63.641  0.00  0.00    -0.246 OA
ENDBRANCH  82  83
ENDBRANCH  79  82
ENDBRANCH  76  79
ENDBRANCH  74  75
BRANCH  74  86
ATOM     86  CB  TYR A  12      28.191   9.082  63.092  0.00  0.00    +0.055 C 
BRANCH  86  87
ATOM     87  CG  TYR A  12      27.210   8.014  62.645  0.00  0.00    -0.020 A 
ATOM     88  CD2 TYR A  12      26.191   7.585  63.482  0.00  0.00    -0.001 A 
ATOM     89  CE2 TYR A  12      25.294   6.609  63.078  0.00  0.00    +0.036 A 
ATOM     90  CZ  TYR A  12      25.418   6.043  61.824  0.00  0.00    +0.134 A 
ATOM     91  CE1 TYR A  12      26.424   6.448  60.975  0.00  0.00    +0.036 A 
ATOM     92  CD1 TYR A  12      27.315   7.427  61.389  0.00  0.00    -0.001 A 
BRANCH  90  93
ATOM     93  OH  TYR A  12      24.532   5.073  61.422  0.00  0.00    -0.506 OA
ATOM     94  HH  TYR A  12      25.026   4.240  61.219  0.00  0.00    +0.292 HD
ENDBRANCH  90  93
ENDBRANCH  86  87
ENDBRANCH  74  86
ENDBRANCH  72  74
ENDBRANCH  69  70
BRANCH  69  95
ATOM     95  CB  ASN A  11      23.898  11.724  60.264  0.00  0.00    +0.114 C 
BRANCH  95  96
ATOM     96  CG  ASN A  11      23.250  12.546  59.171  0.00  0.00    +0.222 C 
ATOM     97  OD1 ASN A  11      23.729  13.626  58.820  0.00  0.00    -0.275 OA
ATOM     98  ND2 ASN A  11      22.152  12.041  58.628  0.00  0.00    -0.329 N 
ATOM     99 HD21 ASN A  11      21.783  11.125  58.956  0.00  0.00    +0.145 HD
ATOM    100 HD22 ASN A  11      21.659  12.560  57.874  0.00  0.00    +0.145 HD
ENDBRANCH  95  96
ENDBRANCH  69  95
ENDBRANCH  66  69
ENDBRANCH  60  65
ENDBRANCH  57  58
BRANCH  57 101
ATOM    101  CB  ILE A   9      26.362  11.194  54.413  0.00  0.00    +0.027 C 
ATOM    102  CG2 ILE A   9      24.859  11.347  54.644  0.00  0.00    +0.002 C 
BRANCH 101 103
ATOM    103  CG1 ILE A   9      26.708  11.312  52.926  0.00  0.00    +0.002 C 
ATOM    104  CD1 ILE A   9      25.987  10.300  52.055  0.00  0.00    +0.000 C 
ENDBRANCH 101 103
ENDBRANCH  57 101
ENDBRANCH  55  57
ENDBRANCH   1  53
BRANCH   1 105
ATOM    105  CB  ASN A   8      26.653  16.978  54.396  0.00  0.00    +0.114 C 
BRANCH 105 106
ATOM    106  CG  ASN A   8      27.829  16.979  55.355  0.00  0.00    +0.222 C 
ATOM    107  OD1 ASN A   8      27.919  16.134  56.247  0.00  0.00    -0.275 OA
ATOM    108  ND2 ASN A   8      28.742  17.929  55.175  0.00  0.00    -0.329 N 
ATOM    109 HD21 ASN A   8      29.572  17.978  55.800  0.00  0.00    +0.145 HD
ATOM    110 HD22 ASN A   8      28.626  18.623  54.409  0.00  0.00    +0.145 HD
ENDBRANCH 105 106
ENDBRANCH   1 105
TORSDOF 41
REMARK  Name = ../refined-set-2016/3t6b/3t6b_pocket.pdb
REMARK  288 active torsions:
REMARK  status: ('A' for Active; 'I' for Inactive)
REMARK    1  A    between atoms: _1  and  _3
REMARK    2  A    between atoms: _3  and  _4
REMARK    3  A    between atoms: _6  and  _8
REMARK    4  A    between atoms: _8  and  _9
REMARK    5  A    between atoms: _8  and  _11
REMARK    6  A    between atoms: _11  and  _12
REMARK    7  A    between atoms: _14  and  _16
REMARK    8  A    between atoms: _16  and  _17
REMARK    9  A    between atoms: _16  and  _19
REMARK   10  A    between atoms: _19  and  _20
REMARK   11  A    between atoms: _23  and  _25
REMARK   12  A    between atoms: _25  and  _26
REMARK   13  A    between atoms: _25  and  _28
REMARK   14  A    between atoms: _28  and  _29
REMARK   15  A    between atoms: _31  and  _33
REMARK   16  A    between atoms: _33  and  _34
REMARK   17  A    between atoms: _33  and  _36
REMARK   18  A    between atoms: _36  and  _37
REMARK   19  A    between atoms: _43  and  _45
REMARK   20  A    between atoms: _45  and  _46
REMARK   21  A    between atoms: _45  and  _48
REMARK   22  A    between atoms: _48  and  _49
REMARK   23  A    between atoms: _54  and  _55
REMARK   24  A    between atoms: _57  and  _59
REMARK   25  A    between atoms: _59  and  _60
REMARK   26  A    between atoms: _59  and  _62
REMARK   27  A    between atoms: _62  and  _63
REMARK   28  A    between atoms: _66  and  _68
REMARK   29  A    between atoms: _68  and  _69
REMARK   30  A    between atoms: _68  and  _71
REMARK   31  A    between atoms: _71  and  _72
REMARK   32  A    between atoms: _72  and  _73
REMARK   33  A    between atoms: _76  and  _78
REMARK   34  A    between atoms: _78  and  _79
REMARK   35  A    between atoms: _78  and  _81
REMARK   36  A    between atoms: _81  and  _82
REMARK   37  A    between atoms: _84  and  _86
REMARK   38  A    between atoms: _86  and  _87
REMARK   39  A    between atoms: _86  and  _89
REMARK   40  A    between atoms: _89  and  _90
REMARK   41  A    between atoms: _95  and  _96
REMARK   42  A    between atoms: _98  and  _100
REMARK   43  A    between atoms: _100  and  _101
REMARK   44  A    between atoms: _100  and  _103
REMARK   45  A    between atoms: _103  and  _104
REMARK   46  A    between atoms: _104  and  _105
REMARK   47  A    between atoms: _108  and  _110
REMARK   48  A    between atoms: _110  and  _111
REMARK   49  A    between atoms: _110  and  _113
REMARK   50  A    between atoms: _113  and  _114
REMARK   51  A    between atoms: _120  and  _122
REMARK   52  A    between atoms: _122  and  _123
REMARK   53  A    between atoms: _122  and  _125
REMARK   54  A    between atoms: _125  and  _126
REMARK   55  A    between atoms: _128  and  _130
REMARK   56  A    between atoms: _130  and  _131
REMARK   57  A    between atoms: _133  and  _135
REMARK   58  A    between atoms: _135  and  _136
REMARK   59  A    between atoms: _135  and  _138
REMARK   60  A    between atoms: _138  and  _139
REMARK   61  A    between atoms: _143  and  _144
REMARK   62  A    between atoms: _149  and  _151
REMARK   63  A    between atoms: _151  and  _152
REMARK   64  A    between atoms: _155  and  _157
REMARK   65  A    between atoms: _157  and  _158
REMARK   66  A    between atoms: _160  and  _162
REMARK   67  A    between atoms: _162  and  _163
REMARK   68  A    between atoms: _162  and  _165
REMARK   69  A    between atoms: _165  and  _166
REMARK   70  A    between atoms: _169  and  _171
REMARK   71  A    between atoms: _171  and  _172
REMARK   72  A    between atoms: _171  and  _174
REMARK   73  A    between atoms: _174  and  _175
REMARK   74  A    between atoms: _180  and  _182
REMARK   75  A    between atoms: _182  and  _183
REMARK   76  A    between atoms: _182  and  _185
REMARK   77  A    between atoms: _185  and  _186
REMARK   78  A    between atoms: _190  and  _191
REMARK   79  A    between atoms: _196  and  _198
REMARK   80  A    between atoms: _198  and  _199
REMARK   81  A    between atoms: _198  and  _201
REMARK   82  A    between atoms: _201  and  _202
REMARK   83  A    between atoms: _207  and  _209
REMARK   84  A    between atoms: _209  and  _210
REMARK   85  A    between atoms: _209  and  _212
REMARK   86  A    between atoms: _212  and  _213
REMARK   87  A    between atoms: _218  and  _219
REMARK   88  A    between atoms: _221  and  _223
REMARK   89  A    between atoms: _223  and  _224
REMARK   90  A    between atoms: _223  and  _226
REMARK   91  A    between atoms: _226  and  _227
REMARK   92  A    between atoms: _230  and  _232
REMARK   93  A    between atoms: _232  and  _233
REMARK   94  A    between atoms: _232  and  _235
REMARK   95  A    between atoms: _235  and  _236
REMARK   96  A    between atoms: _236  and  _237
REMARK   97  A    between atoms: _237  and  _238
REMARK   98  A    between atoms: _247  and  _249
REMARK   99  A    between atoms: _249  and  _250
REMARK  100  A    between atoms: _249  and  _252
REMARK  101  A    between atoms: _252  and  _253
REMARK  102  A    between atoms: _253  and  _254
REMARK  103  A    between atoms: _254  and  _255
REMARK  104  A    between atoms: _255  and  _256
REMARK  105  A    between atoms: _260  and  _262
REMARK  106  A    between atoms: _262  and  _263
REMARK  107  A    between atoms: _262  and  _265
REMARK  108  A    between atoms: _265  and  _266
REMARK  109  A    between atoms: _271  and  _273
REMARK  110  A    between atoms: _273  and  _274
REMARK  111  A    between atoms: _273  and  _276
REMARK  112  A    between atoms: _279  and  _281
REMARK  113  A    between atoms: _281  and  _282
REMARK  114  A    between atoms: _281  and  _284
REMARK  115  A    between atoms: _284  and  _285
REMARK  116  A    between atoms: _288  and  _290
REMARK  117  A    between atoms: _290  and  _291
REMARK  118  A    between atoms: _290  and  _293
REMARK  119  A    between atoms: _296  and  _298
REMARK  120  A    between atoms: _298  and  _299
REMARK  121  A    between atoms: _298  and  _301
REMARK  122  A    between atoms: _301  and  _302
REMARK  123  A    between atoms: _305  and  _307
REMARK  124  A    between atoms: _307  and  _308
REMARK  125  A    between atoms: _311  and  _313
REMARK  126  A    between atoms: _313  and  _314
REMARK  127  A    between atoms: _313  and  _316
REMARK  128  A    between atoms: _319  and  _321
REMARK  129  A    between atoms: _321  and  _322
REMARK  130  A    between atoms: _325  and  _327
REMARK  131  A    between atoms: _327  and  _328
REMARK  132  A    between atoms: _331  and  _333
REMARK  133  A    between atoms: _333  and  _334
REMARK  134  A    between atoms: _333  and  _336
REMARK  135  A    between atoms: _336  and  _337
REMARK  136  A    between atoms: _342  and  _343
REMARK  137  A    between atoms: _345  and  _347
REMARK  138  A    between atoms: _347  and  _348
REMARK  139  A    between atoms: _347  and  _350
REMARK  140  A    between atoms: _350  and  _351
REMARK  141  A    between atoms: _351  and  _352
REMARK  142  A    between atoms: _352  and  _353
REMARK  143  A    between atoms: _353  and  _354
REMARK  144  A    between atoms: _358  and  _360
REMARK  145  A    between atoms: _360  and  _361
REMARK  146  A    between atoms: _360  and  _363
REMARK  147  A    between atoms: _363  and  _364
REMARK  148  A    between atoms: _366  and  _368
REMARK  149  A    between atoms: _368  and  _369
REMARK  150  A    between atoms: _368  and  _371
REMARK  151  A    between atoms: _371  and  _372
REMARK  152  A    between atoms: _378  and  _380
REMARK  153  A    between atoms: _380  and  _381
REMARK  154  A    between atoms: _380  and  _383
REMARK  155  A    between atoms: _383  and  _384
REMARK  156  A    between atoms: _387  and  _389
REMARK  157  A    between atoms: _389  and  _390
REMARK  158  A    between atoms: _389  and  _392
REMARK  159  A    between atoms: _395  and  _397
REMARK  160  A    between atoms: _397  and  _398
REMARK  161  A    between atoms: _397  and  _400
REMARK  162  A    between atoms: _400  and  _401
REMARK  163  A    between atoms: _401  and  _402
REMARK  164  A    between atoms: _407  and  _409
REMARK  165  A    between atoms: _409  and  _410
REMARK  166  A    between atoms: _409  and  _412
REMARK  167  A    between atoms: _415  and  _417
REMARK  168  A    between atoms: _417  and  _418
REMARK  169  A    between atoms: _420  and  _422
REMARK  170  A    between atoms: _422  and  _423
REMARK  171  A    between atoms: _422  and  _425
REMARK  172  A    between atoms: _425  and  _426
REMARK  173  A    between atoms: _429  and  _431
REMARK  174  A    between atoms: _431  and  _432
REMARK  175  A    between atoms: _431  and  _434
REMARK  176  A    between atoms: _434  and  _435
REMARK  177  A    between atoms: _440  and  _442
REMARK  178  A    between atoms: _442  and  _443
REMARK  179  A    between atoms: _446  and  _448
REMARK  180  A    between atoms: _448  and  _449
REMARK  181  A    between atoms: _448  and  _451
REMARK  182  A    between atoms: _451  and  _452
REMARK  183  A    between atoms: _457  and  _459
REMARK  184  A    between atoms: _459  and  _460
REMARK  185  A    between atoms: _459  and  _462
REMARK  186  A    between atoms: _462  and  _463
REMARK  187  A    between atoms: _473  and  _475
REMARK  188  A    between atoms: _475  and  _476
REMARK  189  A    between atoms: _475  and  _478
REMARK  190  A    between atoms: _478  and  _479
REMARK  191  A    between atoms: _482  and  _484
REMARK  192  A    between atoms: _484  and  _485
REMARK  193  A    between atoms: _488  and  _490
REMARK  194  A    between atoms: _490  and  _491
REMARK  195  A    between atoms: _490  and  _493
REMARK  196  A    between atoms: _493  and  _494
REMARK  197  A    between atoms: _496  and  _498
REMARK  198  A    between atoms: _498  and  _499
REMARK  199  A    between atoms: _498  and  _501
REMARK  200  A    between atoms: _501  and  _502
REMARK  201  A    between atoms: _502  and  _503
REMARK  202  A    between atoms: _506  and  _508
REMARK  203  A    between atoms: _508  and  _509
REMARK  204  A    between atoms: _508  and  _511
REMARK  205  A    between atoms: _511  and  _512
REMARK  206  A    between atoms: _512  and  _513
REMARK  207  A    between atoms: _516  and  _518
REMARK  208  A    between atoms: _518  and  _519
REMARK  209  A    between atoms: _518  and  _521
REMARK  210  A    between atoms: _521  and  _522
REMARK  211  A    between atoms: _522  and  _523
REMARK  212  A    between atoms: _523  and  _524
REMARK  213  A    between atoms: _533  and  _535
REMARK  214  A    between atoms: _535  and  _536
REMARK  215  A    between atoms: _539  and  _541
REMARK  216  A    between atoms: _541  and  _542
REMARK  217  A    between atoms: _541  and  _544
REMARK  218  A    between atoms: _544  and  _545
REMARK  219  A    between atoms: _545  and  _546
REMARK  220  A    between atoms: _549  and  _551
REMARK  221  A    between atoms: _551  and  _552
REMARK  222  A    between atoms: _554  and  _556
REMARK  223  A    between atoms: _556  and  _557
REMARK  224  A    between atoms: _556  and  _559
REMARK  225  A    between atoms: _559  and  _560
REMARK  226  A    between atoms: _565  and  _567
REMARK  227  A    between atoms: _567  and  _568
REMARK  228  A    between atoms: _567  and  _570
REMARK  229  A    between atoms: _570  and  _571
REMARK  230  A    between atoms: _576  and  _578
REMARK  231  A    between atoms: _578  and  _579
REMARK  232  A    between atoms: _578  and  _581
REMARK  233  A    between atoms: _581  and  _582
REMARK  234  A    between atoms: _582  and  _583
REMARK  235  A    between atoms: _585  and  _587
REMARK  236  A    between atoms: _587  and  _588
REMARK  237  A    between atoms: _587  and  _590
REMARK  238  A    between atoms: _590  and  _591
REMARK  239  A    between atoms: _591  and  _592
REMARK  240  A    between atoms: _597  and  _599
REMARK  241  A    between atoms: _599  and  _600
REMARK  242  A    between atoms: _603  and  _605
REMARK  243  A    between atoms: _605  and  _606
REMARK  244  A    between atoms: _605  and  _608
REMARK  245  A    between atoms: _608  and  _609
REMARK  246  A    between atoms: _614  and  _616
REMARK  247  A    between atoms: _616  and  _617
REMARK  248  A    between atoms: _616  and  _619
REMARK  249  A    between atoms: _619  and  _620
REMARK  250  A    between atoms: _620  and  _621
REMARK  251  A    between atoms: _623  and  _625
REMARK  252  A    between atoms: _625  and  _626
REMARK  253  A    between atoms: _625  and  _628
REMARK  254  A    between atoms: _628  and  _629
REMARK  255  A    between atoms: _629  and  _630
REMARK  256  A    between atoms: _630  and  _631
REMARK  257  A    between atoms: _640  and  _642
REMARK  258  A    between atoms: _642  and  _643
REMARK  259  A    between atoms: _642  and  _645
REMARK  260  A    between atoms: _645  and  _646
REMARK  261  A    between atoms: _646  and  _647
REMARK  262  A    between atoms: _647  and  _648
REMARK  263  A    between atoms: _648  and  _649
REMARK  264  A    between atoms: _653  and  _655
REMARK  265  A    between atoms: _655  and  _656
REMARK  266  A    between atoms: _655  and  _658
REMARK  267  A    between atoms: _658  and  _659
REMARK  268  A    between atoms: _661  and  _663
REMARK  269  A    between atoms: _663  and  _664
REMARK  270  A    between atoms: _663  and  _666
REMARK  271  A    between atoms: _666  and  _667
REMARK  272  A    between atoms: _667  and  _668
REMARK  273  A    between atoms: _668  and  _669
REMARK  274  A    between atoms: _678  and  _680
REMARK  275  A    between atoms: _680  and  _681
REMARK  276  A    between atoms: _680  and  _683
REMARK  277  A    between atoms: _683  and  _684
REMARK  278  A    between atoms: _684  and  _685
REMARK  279  A    between atoms: _685  and  _686
REMARK  280  A    between atoms: _686  and  _687
REMARK  281  A    between atoms: _691  and  _693
REMARK  282  A    between atoms: _693  and  _694
REMARK  283  A    between atoms: _693  and  _696
REMARK  284  A    between atoms: _696  and  _697
REMARK  285  A    between atoms: _700  and  _702
REMARK  286  A    between atoms: _702  and  _703
REMARK  287  A    between atoms: _702  and  _705
REMARK  288  A    between atoms: _705  and  _706
REMARK                            x       y       z     vdW  Elec       q    Type
REMARK                         _______ _______ _______ _____ _____    ______ ____
ROOT
ATOM      1  NE  ARG A   1      28.663  15.454  59.048  0.00  0.00    -0.265 N 
ATOM      2  CZ  ARG A   1      27.370  15.327  59.326  0.00  0.00    +0.342 C 
ATOM      3  NH2 ARG A   1      26.960  15.388  60.585  0.00  0.00    -0.292 N 
ATOM      4 HH21 ARG A   1      27.649  15.535  61.350  0.00  0.00    +0.255 HD
ATOM      5 HH22 ARG A   1      25.949  15.289  60.808  0.00  0.00    +0.255 HD
ATOM      6  NH1 ARG A   1      26.487  15.141  58.351  0.00  0.00    -0.292 N 
ATOM      7 HH11 ARG A   1      25.477  15.042  58.576  0.00  0.00    +0.255 HD
ATOM      8 HH12 ARG A   1      26.806  15.094  57.362  0.00  0.00    +0.255 HD
ATOM      9  HE  ARG A   1      28.955  15.410  58.051  0.00  0.00    +0.259 HD
ENDROOT
BRANCH   1  10
ATOM     10  CD  ARG A   1      29.698  15.651  60.058  0.00  0.00    +0.174 C 
BRANCH  10  11
ATOM     11  CG  ARG A   1      30.428  14.350  60.398  0.00  0.00    +0.045 C 
BRANCH  11  12
ATOM     12  CB  ARG A   1      31.616  14.610  61.319  0.00  0.00    +0.029 C 
BRANCH  12  13
ATOM     13  CA  ARG A   1      32.811  13.680  61.092  0.00  0.00    +0.133 C 
BRANCH  13  14
ATOM     14  N   ARG A   1      32.644  12.430  61.811  0.00  0.00    -0.239 NA
ATOM     15  H   ARG A   1      31.762  12.252  62.332  0.00  0.00    +0.142 HD
ENDBRANCH  13  14
BRANCH  13  16
ATOM     16  C   ARG A   1      34.117  14.374  61.469  0.00  0.00    +0.224 C 
ATOM     17  O   ARG A   1      34.883  14.788  60.594  0.00  0.00    -0.287 OA
ENDBRANCH  13  16
ENDBRANCH  12  13
ENDBRANCH  11  12
ENDBRANCH  10  11
ENDBRANCH   1  10
TORSDOF 6
REMARK  Name = ../refined-set-2016/3t6b/3t6b_pocket.pdb
REMARK  288 active torsions:
REMARK  status: ('A' for Active; 'I' for Inactive)
REMARK    1  A    between atoms: _1  and  _3
REMARK    2  A    between atoms: _3  and  _4
REMARK    3  A    between atoms: _6  and  _8
REMARK    4  A    between atoms: _8  and  _9
REMARK    5  A    between atoms: _8  and  _11
REMARK    6  A    between atoms: _11  and  _12
REMARK    7  A    between atoms: _14  and  _16
REMARK    8  A    between atoms: _16  and  _17
REMARK    9  A    between atoms: _16  and  _19
REMARK   10  A    between atoms: _19  and  _20
REMARK   11  A    between atoms: _23  and  _25
REMARK   12  A    between atoms: _25  and  _26
REMARK   13  A    between atoms: _25  and  _28
REMARK   14  A    between atoms: _28  and  _29
REMARK   15  A    between atoms: _31  and  _33
REMARK   16  A    between atoms: _33  and  _34
REMARK   17  A    between atoms: _33  and  _36
REMARK   18  A    between atoms: _36  and  _37
REMARK   19  A    between atoms: _43  and  _45
REMARK   20  A    between atoms: _45  and  _46
REMARK   21  A    between atoms: _45  and  _48
REMARK   22  A    between atoms: _48  and  _49
REMARK   23  A    between atoms: _54  and  _55
REMARK   24  A    between atoms: _57  and  _59
REMARK   25  A    between atoms: _59  and  _60
REMARK   26  A    between atoms: _59  and  _62
REMARK   27  A    between atoms: _62  and  _63
REMARK   28  A    between atoms: _66  and  _68
REMARK   29  A    between atoms: _68  and  _69
REMARK   30  A    between atoms: _68  and  _71
REMARK   31  A    between atoms: _71  and  _72
REMARK   32  A    between atoms: _72  and  _73
REMARK   33  A    between atoms: _76  and  _78
REMARK   34  A    between atoms: _78  and  _79
REMARK   35  A    between atoms: _78  and  _81
REMARK   36  A    between atoms: _81  and  _82
REMARK   37  A    between atoms: _84  and  _86
REMARK   38  A    between atoms: _86  and  _87
REMARK   39  A    between atoms: _86  and  _89
REMARK   40  A    between atoms: _89  and  _90
REMARK   41  A    between atoms: _95  and  _96
REMARK   42  A    between atoms: _98  and  _100
REMARK   43  A    between atoms: _100  and  _101
REMARK   44  A    between atoms: _100  and  _103
REMARK   45  A    between atoms: _103  and  _104
REMARK   46  A    between atoms: _104  and  _105
REMARK   47  A    between atoms: _108  and  _110
REMARK   48  A    between atoms: _110  and  _111
REMARK   49  A    between atoms: _110  and  _113
REMARK   50  A    between atoms: _113  and  _114
REMARK   51  A    between atoms: _120  and  _122
REMARK   52  A    between atoms: _122  and  _123
REMARK   53  A    between atoms: _122  and  _125
REMARK   54  A    between atoms: _125  and  _126
REMARK   55  A    between atoms: _128  and  _130
REMARK   56  A    between atoms: _130  and  _131
REMARK   57  A    between atoms: _133  and  _135
REMARK   58  A    between atoms: _135  and  _136
REMARK   59  A    between atoms: _135  and  _138
REMARK   60  A    between atoms: _138  and  _139
REMARK   61  A    between atoms: _143  and  _144
REMARK   62  A    between atoms: _149  and  _151
REMARK   63  A    between atoms: _151  and  _152
REMARK   64  A    between atoms: _155  and  _157
REMARK   65  A    between atoms: _157  and  _158
REMARK   66  A    between atoms: _160  and  _162
REMARK   67  A    between atoms: _162  and  _163
REMARK   68  A    between atoms: _162  and  _165
REMARK   69  A    between atoms: _165  and  _166
REMARK   70  A    between atoms: _169  and  _171
REMARK   71  A    between atoms: _171  and  _172
REMARK   72  A    between atoms: _171  and  _174
REMARK   73  A    between atoms: _174  and  _175
REMARK   74  A    between atoms: _180  and  _182
REMARK   75  A    between atoms: _182  and  _183
REMARK   76  A    between atoms: _182  and  _185
REMARK   77  A    between atoms: _185  and  _186
REMARK   78  A    between atoms: _190  and  _191
REMARK   79  A    between atoms: _196  and  _198
REMARK   80  A    between atoms: _198  and  _199
REMARK   81  A    between atoms: _198  and  _201
REMARK   82  A    between atoms: _201  and  _202
REMARK   83  A    between atoms: _207  and  _209
REMARK   84  A    between atoms: _209  and  _210
REMARK   85  A    between atoms: _209  and  _212
REMARK   86  A    between atoms: _212  and  _213
REMARK   87  A    between atoms: _218  and  _219
REMARK   88  A    between atoms: _221  and  _223
REMARK   89  A    between atoms: _223  and  _224
REMARK   90  A    between atoms: _223  and  _226
REMARK   91  A    between atoms: _226  and  _227
REMARK   92  A    between atoms: _230  and  _232
REMARK   93  A    between atoms: _232  and  _233
REMARK   94  A    between atoms: _232  and  _235
REMARK   95  A    between atoms: _235  and  _236
REMARK   96  A    between atoms: _236  and  _237
REMARK   97  A    between atoms: _237  and  _238
REMARK   98  A    between atoms: _247  and  _249
REMARK   99  A    between atoms: _249  and  _250
REMARK  100  A    between atoms: _249  and  _252
REMARK  101  A    between atoms: _252  and  _253
REMARK  102  A    between atoms: _253  and  _254
REMARK  103  A    between atoms: _254  and  _255
REMARK  104  A    between atoms: _255  and  _256
REMARK  105  A    between atoms: _260  and  _262
REMARK  106  A    between atoms: _262  and  _263
REMARK  107  A    between atoms: _262  and  _265
REMARK  108  A    between atoms: _265  and  _266
REMARK  109  A    between atoms: _271  and  _273
REMARK  110  A    between atoms: _273  and  _274
REMARK  111  A    between atoms: _273  and  _276
REMARK  112  A    between atoms: _279  and  _281
REMARK  113  A    between atoms: _281  and  _282
REMARK  114  A    between atoms: _281  and  _284
REMARK  115  A    between atoms: _284  and  _285
REMARK  116  A    between atoms: _288  and  _290
REMARK  117  A    between atoms: _290  and  _291
REMARK  118  A    between atoms: _290  and  _293
REMARK  119  A    between atoms: _296  and  _298
REMARK  120  A    between atoms: _298  and  _299
REMARK  121  A    between atoms: _298  and  _301
REMARK  122  A    between atoms: _301  and  _302
REMARK  123  A    between atoms: _305  and  _307
REMARK  124  A    between atoms: _307  and  _308
REMARK  125  A    between atoms: _311  and  _313
REMARK  126  A    between atoms: _313  and  _314
REMARK  127  A    between atoms: _313  and  _316
REMARK  128  A    between atoms: _319  and  _321
REMARK  129  A    between atoms: _321  and  _322
REMARK  130  A    between atoms: _325  and  _327
REMARK  131  A    between atoms: _327  and  _328
REMARK  132  A    between atoms: _331  and  _333
REMARK  133  A    between atoms: _333  and  _334
REMARK  134  A    between atoms: _333  and  _336
REMARK  135  A    between atoms: _336  and  _337
REMARK  136  A    between atoms: _342  and  _343
REMARK  137  A    between atoms: _345  and  _347
REMARK  138  A    between atoms: _347  and  _348
REMARK  139  A    between atoms: _347  and  _350
REMARK  140  A    between atoms: _350  and  _351
REMARK  141  A    between atoms: _351  and  _352
REMARK  142  A    between atoms: _352  and  _353
REMARK  143  A    between atoms: _353  and  _354
REMARK  144  A    between atoms: _358  and  _360
REMARK  145  A    between atoms: _360  and  _361
REMARK  146  A    between atoms: _360  and  _363
REMARK  147  A    between atoms: _363  and  _364
REMARK  148  A    between atoms: _366  and  _368
REMARK  149  A    between atoms: _368  and  _369
REMARK  150  A    between atoms: _368  and  _371
REMARK  151  A    between atoms: _371  and  _372
REMARK  152  A    between atoms: _378  and  _380
REMARK  153  A    between atoms: _380  and  _381
REMARK  154  A    between atoms: _380  and  _383
REMARK  155  A    between atoms: _383  and  _384
REMARK  156  A    between atoms: _387  and  _389
REMARK  157  A    between atoms: _389  and  _390
REMARK  158  A    between atoms: _389  and  _392
REMARK  159  A    between atoms: _395  and  _397
REMARK  160  A    between atoms: _397  and  _398
REMARK  161  A    between atoms: _397  and  _400
REMARK  162  A    between atoms: _400  and  _401
REMARK  163  A    between atoms: _401  and  _402
REMARK  164  A    between atoms: _407  and  _409
REMARK  165  A    between atoms: _409  and  _410
REMARK  166  A    between atoms: _409  and  _412
REMARK  167  A    between atoms: _415  and  _417
REMARK  168  A    between atoms: _417  and  _418
REMARK  169  A    between atoms: _420  and  _422
REMARK  170  A    between atoms: _422  and  _423
REMARK  171  A    between atoms: _422  and  _425
REMARK  172  A    between atoms: _425  and  _426
REMARK  173  A    between atoms: _429  and  _431
REMARK  174  A    between atoms: _431  and  _432
REMARK  175  A    between atoms: _431  and  _434
REMARK  176  A    between atoms: _434  and  _435
REMARK  177  A    between atoms: _440  and  _442
REMARK  178  A    between atoms: _442  and  _443
REMARK  179  A    between atoms: _446  and  _448
REMARK  180  A    between atoms: _448  and  _449
REMARK  181  A    between atoms: _448  and  _451
REMARK  182  A    between atoms: _451  and  _452
REMARK  183  A    between atoms: _457  and  _459
REMARK  184  A    between atoms: _459  and  _460
REMARK  185  A    between atoms: _459  and  _462
REMARK  186  A    between atoms: _462  and  _463
REMARK  187  A    between atoms: _473  and  _475
REMARK  188  A    between atoms: _475  and  _476
REMARK  189  A    between atoms: _475  and  _478
REMARK  190  A    between atoms: _478  and  _479
REMARK  191  A    between atoms: _482  and  _484
REMARK  192  A    between atoms: _484  and  _485
REMARK  193  A    between atoms: _488  and  _490
REMARK  194  A    between atoms: _490  and  _491
REMARK  195  A    between atoms: _490  and  _493
REMARK  196  A    between atoms: _493  and  _494
REMARK  197  A    between atoms: _496  and  _498
REMARK  198  A    between atoms: _498  and  _499
REMARK  199  A    between atoms: _498  and  _501
REMARK  200  A    between atoms: _501  and  _502
REMARK  201  A    between atoms: _502  and  _503
REMARK  202  A    between atoms: _506  and  _508
REMARK  203  A    between atoms: _508  and  _509
REMARK  204  A    between atoms: _508  and  _511
REMARK  205  A    between atoms: _511  and  _512
REMARK  206  A    between atoms: _512  and  _513
REMARK  207  A    between atoms: _516  and  _518
REMARK  208  A    between atoms: _518  and  _519
REMARK  209  A    between atoms: _518  and  _521
REMARK  210  A    between atoms: _521  and  _522
REMARK  211  A    between atoms: _522  and  _523
REMARK  212  A    between atoms: _523  and  _524
REMARK  213  A    between atoms: _533  and  _535
REMARK  214  A    between atoms: _535  and  _536
REMARK  215  A    between atoms: _539  and  _541
REMARK  216  A    between atoms: _541  and  _542
REMARK  217  A    between atoms: _541  and  _544
REMARK  218  A    between atoms: _544  and  _545
REMARK  219  A    between atoms: _545  and  _546
REMARK  220  A    between atoms: _549  and  _551
REMARK  221  A    between atoms: _551  and  _552
REMARK  222  A    between atoms: _554  and  _556
REMARK  223  A    between atoms: _556  and  _557
REMARK  224  A    between atoms: _556  and  _559
REMARK  225  A    between atoms: _559  and  _560
REMARK  226  A    between atoms: _565  and  _567
REMARK  227  A    between atoms: _567  and  _568
REMARK  228  A    between atoms: _567  and  _570
REMARK  229  A    between atoms: _570  and  _571
REMARK  230  A    between atoms: _576  and  _578
REMARK  231  A    between atoms: _578  and  _579
REMARK  232  A    between atoms: _578  and  _581
REMARK  233  A    between atoms: _581  and  _582
REMARK  234  A    between atoms: _582  and  _583
REMARK  235  A    between atoms: _585  and  _587
REMARK  236  A    between atoms: _587  and  _588
REMARK  237  A    between atoms: _587  and  _590
REMARK  238  A    between atoms: _590  and  _591
REMARK  239  A    between atoms: _591  and  _592
REMARK  240  A    between atoms: _597  and  _599
REMARK  241  A    between atoms: _599  and  _600
REMARK  242  A    between atoms: _603  and  _605
REMARK  243  A    between atoms: _605  and  _606
REMARK  244  A    between atoms: _605  and  _608
REMARK  245  A    between atoms: _608  and  _609
REMARK  246  A    between atoms: _614  and  _616
REMARK  247  A    between atoms: _616  and  _617
REMARK  248  A    between atoms: _616  and  _619
REMARK  249  A    between atoms: _619  and  _620
REMARK  250  A    between atoms: _620  and  _621
REMARK  251  A    between atoms: _623  and  _625
REMARK  252  A    between atoms: _625  and  _626
REMARK  253  A    between atoms: _625  and  _628
REMARK  254  A    between atoms: _628  and  _629
REMARK  255  A    between atoms: _629  and  _630
REMARK  256  A    between atoms: _630  and  _631
REMARK  257  A    between atoms: _640  and  _642
REMARK  258  A    between atoms: _642  and  _643
REMARK  259  A    between atoms: _642  and  _645
REMARK  260  A    between atoms: _645  and  _646
REMARK  261  A    between atoms: _646  and  _647
REMARK  262  A    between atoms: _647  and  _648
REMARK  263  A    between atoms: _648  and  _649
REMARK  264  A    between atoms: _653  and  _655
REMARK  265  A    between atoms: _655  and  _656
REMARK  266  A    between atoms: _655  and  _658
REMARK  267  A    between atoms: _658  and  _659
REMARK  268  A    between atoms: _661  and  _663
REMARK  269  A    between atoms: _663  and  _664
REMARK  270  A    between atoms: _663  and  _666
REMARK  271  A    between atoms: _666  and  _667
REMARK  272  A    between atoms: _667  and  _668
REMARK  273  A    between atoms: _668  and  _669
REMARK  274  A    between atoms: _678  and  _680
REMARK  275  A    between atoms: _680  and  _681
REMARK  276  A    between atoms: _680  and  _683
REMARK  277  A    between atoms: _683  and  _684
REMARK  278  A    between atoms: _684  and  _685
REMARK  279  A    between atoms: _685  and  _686
REMARK  280  A    between atoms: _686  and  _687
REMARK  281  A    between atoms: _691  and  _693
REMARK  282  A    between atoms: _693  and  _694
REMARK  283  A    between atoms: _693  and  _696
REMARK  284  A    between atoms: _696  and  _697
REMARK  285  A    between atoms: _700  and  _702
REMARK  286  A    between atoms: _702  and  _703
REMARK  287  A    between atoms: _702  and  _705
REMARK  288  A    between atoms: _705  and  _706
REMARK                            x       y       z     vdW  Elec       q    Type
REMARK                         _______ _______ _______ _____ _____    ______ ____
ROOT
ATOM      1  CA  ASN A   2      29.644  15.638  50.001  0.00  0.00    +0.158 C 
ENDROOT
BRANCH   1   4
ATOM      2  C   LYS A   1      30.465  14.025  51.598  0.00  0.00    +0.238 C 
ATOM      3  O   LYS A   1      29.529  14.235  52.364  0.00  0.00    -0.274 OA
ATOM      4  N   ASN A   2      30.635  14.690  50.464  0.00  0.00    -0.297 N 
ATOM      5  H   ASN A   2      31.493  14.528  49.899  0.00  0.00    +0.150 HD
BRANCH   2   6
ATOM      6  CA  LYS A   1      31.510  12.974  51.917  0.00  0.00    +0.145 C 
BRANCH   6   7
ATOM      7  N   LYS A   1      31.632  12.808  53.353  0.00  0.00    -0.238 NA
ATOM      8  H   LYS A   1      30.798  12.526  53.906  0.00  0.00    +0.142 HD
ENDBRANCH   6   7
BRANCH   6   9
ATOM      9  CB  LYS A   1      31.136  11.647  51.254  0.00  0.00    +0.026 C 
BRANCH   9  10
ATOM     10  CG  LYS A   1      32.289  10.677  51.121  0.00  0.00    -0.000 C 
BRANCH  10  11
ATOM     11  CD  LYS A   1      31.883   9.450  50.333  0.00  0.00    -0.024 C 
BRANCH  11  12
ATOM     12  CE  LYS A   1      33.050   8.494  50.170  0.00  0.00    -0.086 C 
BRANCH  12  13
ATOM     13  NZ  LYS A   1      32.649   7.264  49.436  0.00  0.00    +0.380 N 
ATOM     14  HZ1 LYS A   1      31.896   6.778  49.963  0.00  0.00    -0.089 HD
ATOM     15  HZ2 LYS A   1      33.471   6.634  49.343  0.00  0.00    -0.089 HD
ATOM     16  HZ3 LYS A   1      32.301   7.524  48.491  0.00  0.00    -0.089 HD
ENDBRANCH  12  13
ENDBRANCH  11  12
ENDBRANCH  10  11
ENDBRANCH   9  10
ENDBRANCH   6   9
ENDBRANCH   2   6
ENDBRANCH   1   4
BRANCH   1  17
ATOM     17  C   ASN A   2      29.180  15.282  48.609  0.00  0.00    +0.241 C 
ATOM     18  N   VAL A   3      27.869  15.302  48.418  0.00  0.00    -0.298 N 
ATOM     19  H   VAL A   3      27.243  15.545  49.212  0.00  0.00    +0.150 HD
ATOM     20  O   ASN A   2      29.987  15.003  47.726  0.00  0.00    -0.273 OA
BRANCH  18  21
ATOM     21  CA  VAL A   3      27.290  14.992  47.127  0.00  0.00    +0.137 C 
BRANCH  21  22
ATOM     22  CB  VAL A   3      26.499  13.683  47.192  0.00  0.00    +0.026 C 
ATOM     23  CG2 VAL A   3      27.406  12.554  47.627  0.00  0.00    +0.002 C 
ATOM     24  CG1 VAL A   3      25.876  13.383  45.848  0.00  0.00    +0.002 C 
ENDBRANCH  21  22
BRANCH  21  25
ATOM     25  C   VAL A   3      26.369  16.099  46.612  0.00  0.00    +0.227 C 
ATOM     26  O   VAL A   3      25.498  16.591  47.328  0.00  0.00    -0.286 OA
ENDBRANCH  21  25
ENDBRANCH  18  21
ENDBRANCH   1  17
BRANCH   1  27
ATOM     27  CB  ASN A   2      30.206  17.056  50.025  0.00  0.00    +0.114 C 
BRANCH  27  28
ATOM     28  CG  ASN A   2      30.685  17.457  51.399  0.00  0.00    +0.222 C 
ATOM     29  OD1 ASN A   2      29.892  17.853  52.257  0.00  0.00    -0.275 OA
ATOM     30  ND2 ASN A   2      31.985  17.338  51.625  0.00  0.00    -0.329 N 
ATOM     31 HD21 ASN A   2      32.375  17.583  52.557  0.00  0.00    +0.145 HD
ATOM     32 HD22 ASN A   2      32.615  17.000  50.870  0.00  0.00    +0.145 HD
ENDBRANCH  27  28
ENDBRANCH   1  27
TORSDOF 14
REMARK  Name = ../refined-set-2016/3t6b/3t6b_pocket.pdb
REMARK  288 active torsions:
REMARK  status: ('A' for Active; 'I' for Inactive)
REMARK    1  A    between atoms: _1  and  _3
REMARK    2  A    between atoms: _3  and  _4
REMARK    3  A    between atoms: _6  and  _8
REMARK    4  A    between atoms: _8  and  _9
REMARK    5  A    between atoms: _8  and  _11
REMARK    6  A    between atoms: _11  and  _12
REMARK    7  A    between atoms: _14  and  _16
REMARK    8  A    between atoms: _16  and  _17
REMARK    9  A    between atoms: _16  and  _19
REMARK   10  A    between atoms: _19  and  _20
REMARK   11  A    between atoms: _23  and  _25
REMARK   12  A    between atoms: _25  and  _26
REMARK   13  A    between atoms: _25  and  _28
REMARK   14  A    between atoms: _28  and  _29
REMARK   15  A    between atoms: _31  and  _33
REMARK   16  A    between atoms: _33  and  _34
REMARK   17  A    between atoms: _33  and  _36
REMARK   18  A    between atoms: _36  and  _37
REMARK   19  A    between atoms: _43  and  _45
REMARK   20  A    between atoms: _45  and  _46
REMARK   21  A    between atoms: _45  and  _48
REMARK   22  A    between atoms: _48  and  _49
REMARK   23  A    between atoms: _54  and  _55
REMARK   24  A    between atoms: _57  and  _59
REMARK   25  A    between atoms: _59  and  _60
REMARK   26  A    between atoms: _59  and  _62
REMARK   27  A    between atoms: _62  and  _63
REMARK   28  A    between atoms: _66  and  _68
REMARK   29  A    between atoms: _68  and  _69
REMARK   30  A    between atoms: _68  and  _71
REMARK   31  A    between atoms: _71  and  _72
REMARK   32  A    between atoms: _72  and  _73
REMARK   33  A    between atoms: _76  and  _78
REMARK   34  A    between atoms: _78  and  _79
REMARK   35  A    between atoms: _78  and  _81
REMARK   36  A    between atoms: _81  and  _82
REMARK   37  A    between atoms: _84  and  _86
REMARK   38  A    between atoms: _86  and  _87
REMARK   39  A    between atoms: _86  and  _89
REMARK   40  A    between atoms: _89  and  _90
REMARK   41  A    between atoms: _95  and  _96
REMARK   42  A    between atoms: _98  and  _100
REMARK   43  A    between atoms: _100  and  _101
REMARK   44  A    between atoms: _100  and  _103
REMARK   45  A    between atoms: _103  and  _104
REMARK   46  A    between atoms: _104  and  _105
REMARK   47  A    between atoms: _108  and  _110
REMARK   48  A    between atoms: _110  and  _111
REMARK   49  A    between atoms: _110  and  _113
REMARK   50  A    between atoms: _113  and  _114
REMARK   51  A    between atoms: _120  and  _122
REMARK   52  A    between atoms: _122  and  _123
REMARK   53  A    between atoms: _122  and  _125
REMARK   54  A    between atoms: _125  and  _126
REMARK   55  A    between atoms: _128  and  _130
REMARK   56  A    between atoms: _130  and  _131
REMARK   57  A    between atoms: _133  and  _135
REMARK   58  A    between atoms: _135  and  _136
REMARK   59  A    between atoms: _135  and  _138
REMARK   60  A    between atoms: _138  and  _139
REMARK   61  A    between atoms: _143  and  _144
REMARK   62  A    between atoms: _149  and  _151
REMARK   63  A    between atoms: _151  and  _152
REMARK   64  A    between atoms: _155  and  _157
REMARK   65  A    between atoms: _157  and  _158
REMARK   66  A    between atoms: _160  and  _162
REMARK   67  A    between atoms: _162  and  _163
REMARK   68  A    between atoms: _162  and  _165
REMARK   69  A    between atoms: _165  and  _166
REMARK   70  A    between atoms: _169  and  _171
REMARK   71  A    between atoms: _171  and  _172
REMARK   72  A    between atoms: _171  and  _174
REMARK   73  A    between atoms: _174  and  _175
REMARK   74  A    between atoms: _180  and  _182
REMARK   75  A    between atoms: _182  and  _183
REMARK   76  A    between atoms: _182  and  _185
REMARK   77  A    between atoms: _185  and  _186
REMARK   78  A    between atoms: _190  and  _191
REMARK   79  A    between atoms: _196  and  _198
REMARK   80  A    between atoms: _198  and  _199
REMARK   81  A    between atoms: _198  and  _201
REMARK   82  A    between atoms: _201  and  _202
REMARK   83  A    between atoms: _207  and  _209
REMARK   84  A    between atoms: _209  and  _210
REMARK   85  A    between atoms: _209  and  _212
REMARK   86  A    between atoms: _212  and  _213
REMARK   87  A    between atoms: _218  and  _219
REMARK   88  A    between atoms: _221  and  _223
REMARK   89  A    between atoms: _223  and  _224
REMARK   90  A    between atoms: _223  and  _226
REMARK   91  A    between atoms: _226  and  _227
REMARK   92  A    between atoms: _230  and  _232
REMARK   93  A    between atoms: _232  and  _233
REMARK   94  A    between atoms: _232  and  _235
REMARK   95  A    between atoms: _235  and  _236
REMARK   96  A    between atoms: _236  and  _237
REMARK   97  A    between atoms: _237  and  _238
REMARK   98  A    between atoms: _247  and  _249
REMARK   99  A    between atoms: _249  and  _250
REMARK  100  A    between atoms: _249  and  _252
REMARK  101  A    between atoms: _252  and  _253
REMARK  102  A    between atoms: _253  and  _254
REMARK  103  A    between atoms: _254  and  _255
REMARK  104  A    between atoms: _255  and  _256
REMARK  105  A    between atoms: _260  and  _262
REMARK  106  A    between atoms: _262  and  _263
REMARK  107  A    between atoms: _262  and  _265
REMARK  108  A    between atoms: _265  and  _266
REMARK  109  A    between atoms: _271  and  _273
REMARK  110  A    between atoms: _273  and  _274
REMARK  111  A    between atoms: _273  and  _276
REMARK  112  A    between atoms: _279  and  _281
REMARK  113  A    between atoms: _281  and  _282
REMARK  114  A    between atoms: _281  and  _284
REMARK  115  A    between atoms: _284  and  _285
REMARK  116  A    between atoms: _288  and  _290
REMARK  117  A    between atoms: _290  and  _291
REMARK  118  A    between atoms: _290  and  _293
REMARK  119  A    between atoms: _296  and  _298
REMARK  120  A    between atoms: _298  and  _299
REMARK  121  A    between atoms: _298  and  _301
REMARK  122  A    between atoms: _301  and  _302
REMARK  123  A    between atoms: _305  and  _307
REMARK  124  A    between atoms: _307  and  _308
REMARK  125  A    between atoms: _311  and  _313
REMARK  126  A    between atoms: _313  and  _314
REMARK  127  A    between atoms: _313  and  _316
REMARK  128  A    between atoms: _319  and  _321
REMARK  129  A    between atoms: _321  and  _322
REMARK  130  A    between atoms: _325  and  _327
REMARK  131  A    between atoms: _327  and  _328
REMARK  132  A    between atoms: _331  and  _333
REMARK  133  A    between atoms: _333  and  _334
REMARK  134  A    between atoms: _333  and  _336
REMARK  135  A    between atoms: _336  and  _337
REMARK  136  A    between atoms: _342  and  _343
REMARK  137  A    between atoms: _345  and  _347
REMARK  138  A    between atoms: _347  and  _348
REMARK  139  A    between atoms: _347  and  _350
REMARK  140  A    between atoms: _350  and  _351
REMARK  141  A    between atoms: _351  and  _352
REMARK  142  A    between atoms: _352  and  _353
REMARK  143  A    between atoms: _353  and  _354
REMARK  144  A    between atoms: _358  and  _360
REMARK  145  A    between atoms: _360  and  _361
REMARK  146  A    between atoms: _360  and  _363
REMARK  147  A    between atoms: _363  and  _364
REMARK  148  A    between atoms: _366  and  _368
REMARK  149  A    between atoms: _368  and  _369
REMARK  150  A    between atoms: _368  and  _371
REMARK  151  A    between atoms: _371  and  _372
REMARK  152  A    between atoms: _378  and  _380
REMARK  153  A    between atoms: _380  and  _381
REMARK  154  A    between atoms: _380  and  _383
REMARK  155  A    between atoms: _383  and  _384
REMARK  156  A    between atoms: _387  and  _389
REMARK  157  A    between atoms: _389  and  _390
REMARK  158  A    between atoms: _389  and  _392
REMARK  159  A    between atoms: _395  and  _397
REMARK  160  A    between atoms: _397  and  _398
REMARK  161  A    between atoms: _397  and  _400
REMARK  162  A    between atoms: _400  and  _401
REMARK  163  A    between atoms: _401  and  _402
REMARK  164  A    between atoms: _407  and  _409
REMARK  165  A    between atoms: _409  and  _410
REMARK  166  A    between atoms: _409  and  _412
REMARK  167  A    between atoms: _415  and  _417
REMARK  168  A    between atoms: _417  and  _418
REMARK  169  A    between atoms: _420  and  _422
REMARK  170  A    between atoms: _422  and  _423
REMARK  171  A    between atoms: _422  and  _425
REMARK  172  A    between atoms: _425  and  _426
REMARK  173  A    between atoms: _429  and  _431
REMARK  174  A    between atoms: _431  and  _432
REMARK  175  A    between atoms: _431  and  _434
REMARK  176  A    between atoms: _434  and  _435
REMARK  177  A    between atoms: _440  and  _442
REMARK  178  A    between atoms: _442  and  _443
REMARK  179  A    between atoms: _446  and  _448
REMARK  180  A    between atoms: _448  and  _449
REMARK  181  A    between atoms: _448  and  _451
REMARK  182  A    between atoms: _451  and  _452
REMARK  183  A    between atoms: _457  and  _459
REMARK  184  A    between atoms: _459  and  _460
REMARK  185  A    between atoms: _459  and  _462
REMARK  186  A    between atoms: _462  and  _463
REMARK  187  A    between atoms: _473  and  _475
REMARK  188  A    between atoms: _475  and  _476
REMARK  189  A    between atoms: _475  and  _478
REMARK  190  A    between atoms: _478  and  _479
REMARK  191  A    between atoms: _482  and  _484
REMARK  192  A    between atoms: _484  and  _485
REMARK  193  A    between atoms: _488  and  _490
REMARK  194  A    between atoms: _490  and  _491
REMARK  195  A    between atoms: _490  and  _493
REMARK  196  A    between atoms: _493  and  _494
REMARK  197  A    between atoms: _496  and  _498
REMARK  198  A    between atoms: _498  and  _499
REMARK  199  A    between atoms: _498  and  _501
REMARK  200  A    between atoms: _501  and  _502
REMARK  201  A    between atoms: _502  and  _503
REMARK  202  A    between atoms: _506  and  _508
REMARK  203  A    between atoms: _508  and  _509
REMARK  204  A    between atoms: _508  and  _511
REMARK  205  A    between atoms: _511  and  _512
REMARK  206  A    between atoms: _512  and  _513
REMARK  207  A    between atoms: _516  and  _518
REMARK  208  A    between atoms: _518  and  _519
REMARK  209  A    between atoms: _518  and  _521
REMARK  210  A    between atoms: _521  and  _522
REMARK  211  A    between atoms: _522  and  _523
REMARK  212  A    between atoms: _523  and  _524
REMARK  213  A    between atoms: _533  and  _535
REMARK  214  A    between atoms: _535  and  _536
REMARK  215  A    between atoms: _539  and  _541
REMARK  216  A    between atoms: _541  and  _542
REMARK  217  A    between atoms: _541  and  _544
REMARK  218  A    between atoms: _544  and  _545
REMARK  219  A    between atoms: _545  and  _546
REMARK  220  A    between atoms: _549  and  _551
REMARK  221  A    between atoms: _551  and  _552
REMARK  222  A    between atoms: _554  and  _556
REMARK  223  A    between atoms: _556  and  _557
REMARK  224  A    between atoms: _556  and  _559
REMARK  225  A    between atoms: _559  and  _560
REMARK  226  A    between atoms: _565  and  _567
REMARK  227  A    between atoms: _567  and  _568
REMARK  228  A    between atoms: _567  and  _570
REMARK  229  A    between atoms: _570  and  _571
REMARK  230  A    between atoms: _576  and  _578
REMARK  231  A    between atoms: _578  and  _579
REMARK  232  A    between atoms: _578  and  _581
REMARK  233  A    between atoms: _581  and  _582
REMARK  234  A    between atoms: _582  and  _583
REMARK  235  A    between atoms: _585  and  _587
REMARK  236  A    between atoms: _587  and  _588
REMARK  237  A    between atoms: _587  and  _590
REMARK  238  A    between atoms: _590  and  _591
REMARK  239  A    between atoms: _591  and  _592
REMARK  240  A    between atoms: _597  and  _599
REMARK  241  A    between atoms: _599  and  _600
REMARK  242  A    between atoms: _603  and  _605
REMARK  243  A    between atoms: _605  and  _606
REMARK  244  A    between atoms: _605  and  _608
REMARK  245  A    between atoms: _608  and  _609
REMARK  246  A    between atoms: _614  and  _616
REMARK  247  A    between atoms: _616  and  _617
REMARK  248  A    between atoms: _616  and  _619
REMARK  249  A    between atoms: _619  and  _620
REMARK  250  A    between atoms: _620  and  _621
REMARK  251  A    between atoms: _623  and  _625
REMARK  252  A    between atoms: _625  and  _626
REMARK  253  A    between atoms: _625  and  _628
REMARK  254  A    between atoms: _628  and  _629
REMARK  255  A    between atoms: _629  and  _630
REMARK  256  A    between atoms: _630  and  _631
REMARK  257  A    between atoms: _640  and  _642
REMARK  258  A    between atoms: _642  and  _643
REMARK  259  A    between atoms: _642  and  _645
REMARK  260  A    between atoms: _645  and  _646
REMARK  261  A    between atoms: _646  and  _647
REMARK  262  A    between atoms: _647  and  _648
REMARK  263  A    between atoms: _648  and  _649
REMARK  264  A    between atoms: _653  and  _655
REMARK  265  A    between atoms: _655  and  _656
REMARK  266  A    between atoms: _655  and  _658
REMARK  267  A    between atoms: _658  and  _659
REMARK  268  A    between atoms: _661  and  _663
REMARK  269  A    between atoms: _663  and  _664
REMARK  270  A    between atoms: _663  and  _666
REMARK  271  A    between atoms: _666  and  _667
REMARK  272  A    between atoms: _667  and  _668
REMARK  273  A    between atoms: _668  and  _669
REMARK  274  A    between atoms: _678  and  _680
REMARK  275  A    between atoms: _680  and  _681
REMARK  276  A    between atoms: _680  and  _683
REMARK  277  A    between atoms: _683  and  _684
REMARK  278  A    between atoms: _684  and  _685
REMARK  279  A    between atoms: _685  and  _686
REMARK  280  A    between atoms: _686  and  _687
REMARK  281  A    between atoms: _691  and  _693
REMARK  282  A    between atoms: _693  and  _694
REMARK  283  A    between atoms: _693  and  _696
REMARK  284  A    between atoms: _696  and  _697
REMARK  285  A    between atoms: _700  and  _702
REMARK  286  A    between atoms: _702  and  _703
REMARK  287  A    between atoms: _702  and  _705
REMARK  288  A    between atoms: _705  and  _706
REMARK                            x       y       z     vdW  Elec       q    Type
REMARK                         _______ _______ _______ _____ _____    ______ ____
ROOT
ATOM      1  CA  LEU A   1      23.085  15.379  42.501  0.00  0.00    +0.133 C 
ENDROOT
BRANCH   1   2
ATOM      2  N   LEU A   1      23.689  16.251  43.500  0.00  0.00    -0.239 NA
ATOM      3  H   LEU A   1      23.090  16.792  44.156  0.00  0.00    +0.142 HD
ENDBRANCH   1   2
BRANCH   1   4
ATOM      4  C   LEU A   1      22.663  16.247  41.327  0.00  0.00    +0.224 C 
ATOM      5  O   LEU A   1      21.623  16.903  41.357  0.00  0.00    -0.287 OA
ENDBRANCH   1   4
BRANCH   1   6
ATOM      6  CB  LEU A   1      21.855  14.693  43.089  0.00  0.00    +0.025 C 
BRANCH   6   7
ATOM      7  CG  LEU A   1      22.001  14.063  44.476  0.00  0.00    +0.002 C 
ATOM      8  CD2 LEU A   1      20.642  13.720  45.062  0.00  0.00    +0.000 C 
ATOM      9  CD1 LEU A   1      22.871  12.824  44.405  0.00  0.00    +0.000 C 
ENDBRANCH   6   7
ENDBRANCH   1   6
TORSDOF 4
REMARK  Name = ../refined-set-2016/3t6b/3t6b_pocket.pdb
REMARK  288 active torsions:
REMARK  status: ('A' for Active; 'I' for Inactive)
REMARK    1  A    between atoms: _1  and  _3
REMARK    2  A    between atoms: _3  and  _4
REMARK    3  A    between atoms: _6  and  _8
REMARK    4  A    between atoms: _8  and  _9
REMARK    5  A    between atoms: _8  and  _11
REMARK    6  A    between atoms: _11  and  _12
REMARK    7  A    between atoms: _14  and  _16
REMARK    8  A    between atoms: _16  and  _17
REMARK    9  A    between atoms: _16  and  _19
REMARK   10  A    between atoms: _19  and  _20
REMARK   11  A    between atoms: _23  and  _25
REMARK   12  A    between atoms: _25  and  _26
REMARK   13  A    between atoms: _25  and  _28
REMARK   14  A    between atoms: _28  and  _29
REMARK   15  A    between atoms: _31  and  _33
REMARK   16  A    between atoms: _33  and  _34
REMARK   17  A    between atoms: _33  and  _36
REMARK   18  A    between atoms: _36  and  _37
REMARK   19  A    between atoms: _43  and  _45
REMARK   20  A    between atoms: _45  and  _46
REMARK   21  A    between atoms: _45  and  _48
REMARK   22  A    between atoms: _48  and  _49
REMARK   23  A    between atoms: _54  and  _55
REMARK   24  A    between atoms: _57  and  _59
REMARK   25  A    between atoms: _59  and  _60
REMARK   26  A    between atoms: _59  and  _62
REMARK   27  A    between atoms: _62  and  _63
REMARK   28  A    between atoms: _66  and  _68
REMARK   29  A    between atoms: _68  and  _69
REMARK   30  A    between atoms: _68  and  _71
REMARK   31  A    between atoms: _71  and  _72
REMARK   32  A    between atoms: _72  and  _73
REMARK   33  A    between atoms: _76  and  _78
REMARK   34  A    between atoms: _78  and  _79
REMARK   35  A    between atoms: _78  and  _81
REMARK   36  A    between atoms: _81  and  _82
REMARK   37  A    between atoms: _84  and  _86
REMARK   38  A    between atoms: _86  and  _87
REMARK   39  A    between atoms: _86  and  _89
REMARK   40  A    between atoms: _89  and  _90
REMARK   41  A    between atoms: _95  and  _96
REMARK   42  A    between atoms: _98  and  _100
REMARK   43  A    between atoms: _100  and  _101
REMARK   44  A    between atoms: _100  and  _103
REMARK   45  A    between atoms: _103  and  _104
REMARK   46  A    between atoms: _104  and  _105
REMARK   47  A    between atoms: _108  and  _110
REMARK   48  A    between atoms: _110  and  _111
REMARK   49  A    between atoms: _110  and  _113
REMARK   50  A    between atoms: _113  and  _114
REMARK   51  A    between atoms: _120  and  _122
REMARK   52  A    between atoms: _122  and  _123
REMARK   53  A    between atoms: _122  and  _125
REMARK   54  A    between atoms: _125  and  _126
REMARK   55  A    between atoms: _128  and  _130
REMARK   56  A    between atoms: _130  and  _131
REMARK   57  A    between atoms: _133  and  _135
REMARK   58  A    between atoms: _135  and  _136
REMARK   59  A    between atoms: _135  and  _138
REMARK   60  A    between atoms: _138  and  _139
REMARK   61  A    between atoms: _143  and  _144
REMARK   62  A    between atoms: _149  and  _151
REMARK   63  A    between atoms: _151  and  _152
REMARK   64  A    between atoms: _155  and  _157
REMARK   65  A    between atoms: _157  and  _158
REMARK   66  A    between atoms: _160  and  _162
REMARK   67  A    between atoms: _162  and  _163
REMARK   68  A    between atoms: _162  and  _165
REMARK   69  A    between atoms: _165  and  _166
REMARK   70  A    between atoms: _169  and  _171
REMARK   71  A    between atoms: _171  and  _172
REMARK   72  A    between atoms: _171  and  _174
REMARK   73  A    between atoms: _174  and  _175
REMARK   74  A    between atoms: _180  and  _182
REMARK   75  A    between atoms: _182  and  _183
REMARK   76  A    between atoms: _182  and  _185
REMARK   77  A    between atoms: _185  and  _186
REMARK   78  A    between atoms: _190  and  _191
REMARK   79  A    between atoms: _196  and  _198
REMARK   80  A    between atoms: _198  and  _199
REMARK   81  A    between atoms: _198  and  _201
REMARK   82  A    between atoms: _201  and  _202
REMARK   83  A    between atoms: _207  and  _209
REMARK   84  A    between atoms: _209  and  _210
REMARK   85  A    between atoms: _209  and  _212
REMARK   86  A    between atoms: _212  and  _213
REMARK   87  A    between atoms: _218  and  _219
REMARK   88  A    between atoms: _221  and  _223
REMARK   89  A    between atoms: _223  and  _224
REMARK   90  A    between atoms: _223  and  _226
REMARK   91  A    between atoms: _226  and  _227
REMARK   92  A    between atoms: _230  and  _232
REMARK   93  A    between atoms: _232  and  _233
REMARK   94  A    between atoms: _232  and  _235
REMARK   95  A    between atoms: _235  and  _236
REMARK   96  A    between atoms: _236  and  _237
REMARK   97  A    between atoms: _237  and  _238
REMARK   98  A    between atoms: _247  and  _249
REMARK   99  A    between atoms: _249  and  _250
REMARK  100  A    between atoms: _249  and  _252
REMARK  101  A    between atoms: _252  and  _253
REMARK  102  A    between atoms: _253  and  _254
REMARK  103  A    between atoms: _254  and  _255
REMARK  104  A    between atoms: _255  and  _256
REMARK  105  A    between atoms: _260  and  _262
REMARK  106  A    between atoms: _262  and  _263
REMARK  107  A    between atoms: _262  and  _265
REMARK  108  A    between atoms: _265  and  _266
REMARK  109  A    between atoms: _271  and  _273
REMARK  110  A    between atoms: _273  and  _274
REMARK  111  A    between atoms: _273  and  _276
REMARK  112  A    between atoms: _279  and  _281
REMARK  113  A    between atoms: _281  and  _282
REMARK  114  A    between atoms: _281  and  _284
REMARK  115  A    between atoms: _284  and  _285
REMARK  116  A    between atoms: _288  and  _290
REMARK  117  A    between atoms: _290  and  _291
REMARK  118  A    between atoms: _290  and  _293
REMARK  119  A    between atoms: _296  and  _298
REMARK  120  A    between atoms: _298  and  _299
REMARK  121  A    between atoms: _298  and  _301
REMARK  122  A    between atoms: _301  and  _302
REMARK  123  A    between atoms: _305  and  _307
REMARK  124  A    between atoms: _307  and  _308
REMARK  125  A    between atoms: _311  and  _313
REMARK  126  A    between atoms: _313  and  _314
REMARK  127  A    between atoms: _313  and  _316
REMARK  128  A    between atoms: _319  and  _321
REMARK  129  A    between atoms: _321  and  _322
REMARK  130  A    between atoms: _325  and  _327
REMARK  131  A    between atoms: _327  and  _328
REMARK  132  A    between atoms: _331  and  _333
REMARK  133  A    between atoms: _333  and  _334
REMARK  134  A    between atoms: _333  and  _336
REMARK  135  A    between atoms: _336  and  _337
REMARK  136  A    between atoms: _342  and  _343
REMARK  137  A    between atoms: _345  and  _347
REMARK  138  A    between atoms: _347  and  _348
REMARK  139  A    between atoms: _347  and  _350
REMARK  140  A    between atoms: _350  and  _351
REMARK  141  A    between atoms: _351  and  _352
REMARK  142  A    between atoms: _352  and  _353
REMARK  143  A    between atoms: _353  and  _354
REMARK  144  A    between atoms: _358  and  _360
REMARK  145  A    between atoms: _360  and  _361
REMARK  146  A    between atoms: _360  and  _363
REMARK  147  A    between atoms: _363  and  _364
REMARK  148  A    between atoms: _366  and  _368
REMARK  149  A    between atoms: _368  and  _369
REMARK  150  A    between atoms: _368  and  _371
REMARK  151  A    between atoms: _371  and  _372
REMARK  152  A    between atoms: _378  and  _380
REMARK  153  A    between atoms: _380  and  _381
REMARK  154  A    between atoms: _380  and  _383
REMARK  155  A    between atoms: _383  and  _384
REMARK  156  A    between atoms: _387  and  _389
REMARK  157  A    between atoms: _389  and  _390
REMARK  158  A    between atoms: _389  and  _392
REMARK  159  A    between atoms: _395  and  _397
REMARK  160  A    between atoms: _397  and  _398
REMARK  161  A    between atoms: _397  and  _400
REMARK  162  A    between atoms: _400  and  _401
REMARK  163  A    between atoms: _401  and  _402
REMARK  164  A    between atoms: _407  and  _409
REMARK  165  A    between atoms: _409  and  _410
REMARK  166  A    between atoms: _409  and  _412
REMARK  167  A    between atoms: _415  and  _417
REMARK  168  A    between atoms: _417  and  _418
REMARK  169  A    between atoms: _420  and  _422
REMARK  170  A    between atoms: _422  and  _423
REMARK  171  A    between atoms: _422  and  _425
REMARK  172  A    between atoms: _425  and  _426
REMARK  173  A    between atoms: _429  and  _431
REMARK  174  A    between atoms: _431  and  _432
REMARK  175  A    between atoms: _431  and  _434
REMARK  176  A    between atoms: _434  and  _435
REMARK  177  A    between atoms: _440  and  _442
REMARK  178  A    between atoms: _442  and  _443
REMARK  179  A    between atoms: _446  and  _448
REMARK  180  A    between atoms: _448  and  _449
REMARK  181  A    between atoms: _448  and  _451
REMARK  182  A    between atoms: _451  and  _452
REMARK  183  A    between atoms: _457  and  _459
REMARK  184  A    between atoms: _459  and  _460
REMARK  185  A    between atoms: _459  and  _462
REMARK  186  A    between atoms: _462  and  _463
REMARK  187  A    between atoms: _473  and  _475
REMARK  188  A    between atoms: _475  and  _476
REMARK  189  A    between atoms: _475  and  _478
REMARK  190  A    between atoms: _478  and  _479
REMARK  191  A    between atoms: _482  and  _484
REMARK  192  A    between atoms: _484  and  _485
REMARK  193  A    between atoms: _488  and  _490
REMARK  194  A    between atoms: _490  and  _491
REMARK  195  A    between atoms: _490  and  _493
REMARK  196  A    between atoms: _493  and  _494
REMARK  197  A    between atoms: _496  and  _498
REMARK  198  A    between atoms: _498  and  _499
REMARK  199  A    between atoms: _498  and  _501
REMARK  200  A    between atoms: _501  and  _502
REMARK  201  A    between atoms: _502  and  _503
REMARK  202  A    between atoms: _506  and  _508
REMARK  203  A    between atoms: _508  and  _509
REMARK  204  A    between atoms: _508  and  _511
REMARK  205  A    between atoms: _511  and  _512
REMARK  206  A    between atoms: _512  and  _513
REMARK  207  A    between atoms: _516  and  _518
REMARK  208  A    between atoms: _518  and  _519
REMARK  209  A    between atoms: _518  and  _521
REMARK  210  A    between atoms: _521  and  _522
REMARK  211  A    between atoms: _522  and  _523
REMARK  212  A    between atoms: _523  and  _524
REMARK  213  A    between atoms: _533  and  _535
REMARK  214  A    between atoms: _535  and  _536
REMARK  215  A    between atoms: _539  and  _541
REMARK  216  A    between atoms: _541  and  _542
REMARK  217  A    between atoms: _541  and  _544
REMARK  218  A    between atoms: _544  and  _545
REMARK  219  A    between atoms: _545  and  _546
REMARK  220  A    between atoms: _549  and  _551
REMARK  221  A    between atoms: _551  and  _552
REMARK  222  A    between atoms: _554  and  _556
REMARK  223  A    between atoms: _556  and  _557
REMARK  224  A    between atoms: _556  and  _559
REMARK  225  A    between atoms: _559  and  _560
REMARK  226  A    between atoms: _565  and  _567
REMARK  227  A    between atoms: _567  and  _568
REMARK  228  A    between atoms: _567  and  _570
REMARK  229  A    between atoms: _570  and  _571
REMARK  230  A    between atoms: _576  and  _578
REMARK  231  A    between atoms: _578  and  _579
REMARK  232  A    between atoms: _578  and  _581
REMARK  233  A    between atoms: _581  and  _582
REMARK  234  A    between atoms: _582  and  _583
REMARK  235  A    between atoms: _585  and  _587
REMARK  236  A    between atoms: _587  and  _588
REMARK  237  A    between atoms: _587  and  _590
REMARK  238  A    between atoms: _590  and  _591
REMARK  239  A    between atoms: _591  and  _592
REMARK  240  A    between atoms: _597  and  _599
REMARK  241  A    between atoms: _599  and  _600
REMARK  242  A    between atoms: _603  and  _605
REMARK  243  A    between atoms: _605  and  _606
REMARK  244  A    between atoms: _605  and  _608
REMARK  245  A    between atoms: _608  and  _609
REMARK  246  A    between atoms: _614  and  _616
REMARK  247  A    between atoms: _616  and  _617
REMARK  248  A    between atoms: _616  and  _619
REMARK  249  A    between atoms: _619  and  _620
REMARK  250  A    between atoms: _620  and  _621
REMARK  251  A    between atoms: _623  and  _625
REMARK  252  A    between atoms: _625  and  _626
REMARK  253  A    between atoms: _625  and  _628
REMARK  254  A    between atoms: _628  and  _629
REMARK  255  A    between atoms: _629  and  _630
REMARK  256  A    between atoms: _630  and  _631
REMARK  257  A    between atoms: _640  and  _642
REMARK  258  A    between atoms: _642  and  _643
REMARK  259  A    between atoms: _642  and  _645
REMARK  260  A    between atoms: _645  and  _646
REMARK  261  A    between atoms: _646  and  _647
REMARK  262  A    between atoms: _647  and  _648
REMARK  263  A    between atoms: _648  and  _649
REMARK  264  A    between atoms: _653  and  _655
REMARK  265  A    between atoms: _655  and  _656
REMARK  266  A    between atoms: _655  and  _658
REMARK  267  A    between atoms: _658  and  _659
REMARK  268  A    between atoms: _661  and  _663
REMARK  269  A    between atoms: _663  and  _664
REMARK  270  A    between atoms: _663  and  _666
REMARK  271  A    between atoms: _666  and  _667
REMARK  272  A    between atoms: _667  and  _668
REMARK  273  A    between atoms: _668  and  _669
REMARK  274  A    between atoms: _678  and  _680
REMARK  275  A    between atoms: _680  and  _681
REMARK  276  A    between atoms: _680  and  _683
REMARK  277  A    between atoms: _683  and  _684
REMARK  278  A    between atoms: _684  and  _685
REMARK  279  A    between atoms: _685  and  _686
REMARK  280  A    between atoms: _686  and  _687
REMARK  281  A    between atoms: _691  and  _693
REMARK  282  A    between atoms: _693  and  _694
REMARK  283  A    between atoms: _693  and  _696
REMARK  284  A    between atoms: _696  and  _697
REMARK  285  A    between atoms: _700  and  _702
REMARK  286  A    between atoms: _702  and  _703
REMARK  287  A    between atoms: _702  and  _705
REMARK  288  A    between atoms: _705  and  _706
REMARK                            x       y       z     vdW  Elec       q    Type
REMARK                         _______ _______ _______ _____ _____    ______ ____
ROOT
ATOM      1  C   LEU A   2      18.456  20.305  38.712  0.00  0.00    +0.241 C 
ATOM      2  O   LEU A   2      17.475  21.038  38.610  0.00  0.00    -0.273 OA
ATOM      3  N   ALA A   3      18.985  19.644  37.688  0.00  0.00    -0.297 N 
ATOM      4  H   ALA A   3      19.773  18.990  37.871  0.00  0.00    +0.150 HD
ENDROOT
BRANCH   3   5
ATOM      5  CA  ALA A   3      18.508  19.796  36.319  0.00  0.00    +0.149 C 
ATOM      6  CB  ALA A   3      19.192  18.779  35.411  0.00  0.00    +0.031 C 
BRANCH   5   7
ATOM      7  C   ALA A   3      16.996  19.649  36.232  0.00  0.00    +0.241 C 
ATOM      8  N   VAL A   4      16.443  18.793  37.083  0.00  0.00    -0.297 N 
ATOM      9  H   VAL A   4      17.045  18.302  37.775  0.00  0.00    +0.150 HD
ATOM     10  O   ALA A   3      16.345  20.297  35.413  0.00  0.00    -0.273 OA
BRANCH   8  11
ATOM     11  CA  VAL A   4      15.012  18.527  37.068  0.00  0.00    +0.149 C 
BRANCH  11  12
ATOM     12  C   VAL A   4      14.201  19.743  37.494  0.00  0.00    +0.241 C 
ATOM     13  N   ALA A   5      14.706  20.534  38.437  0.00  0.00    -0.298 N 
ATOM     14  H   ALA A   5      15.524  20.243  39.010  0.00  0.00    +0.150 HD
ATOM     15  O   VAL A   4      13.110  19.973  36.967  0.00  0.00    -0.273 OA
BRANCH  13  16
ATOM     16  CA  ALA A   5      14.065  21.821  38.630  0.00  0.00    +0.137 C 
ATOM     17  CB  ALA A   5      13.660  21.989  40.088  0.00  0.00    +0.030 C 
BRANCH  16  18
ATOM     18  C   ALA A   5      14.973  22.967  38.206  0.00  0.00    +0.227 C 
ATOM     19  O   ALA A   5      15.791  23.461  38.983  0.00  0.00    -0.286 OA
ENDBRANCH  16  18
ENDBRANCH  13  16
ENDBRANCH  11  12
BRANCH  11  20
ATOM     20  CB  VAL A   4      14.644  17.295  37.914  0.00  0.00    +0.027 C 
ATOM     21  CG2 VAL A   4      13.164  17.293  38.231  0.00  0.00    +0.002 C 
ATOM     22  CG1 VAL A   4      15.034  16.021  37.179  0.00  0.00    +0.002 C 
ENDBRANCH  11  20
ENDBRANCH   8  11
ENDBRANCH   5   7
ENDBRANCH   3   5
BRANCH   1  23
ATOM     23  CA  LEU A   2      19.121  20.071  40.058  0.00  0.00    +0.149 C 
BRANCH  23  25
ATOM     24  C   VAL A   1      17.951  17.978  40.353  0.00  0.00    +0.238 C 
ATOM     25  N   LEU A   2      19.099  18.646  40.340  0.00  0.00    -0.297 N 
ATOM     26  H   LEU A   2      19.990  18.145  40.533  0.00  0.00    +0.150 HD
ATOM     27  O   VAL A   1      16.858  18.530  40.210  0.00  0.00    -0.274 OA
BRANCH  24  28
ATOM     28  CA  VAL A   1      18.050  16.465  40.543  0.00  0.00    +0.145 C 
BRANCH  28  29
ATOM     29  CB  VAL A   1      18.127  16.104  42.050  0.00  0.00    +0.025 C 
ATOM     30  CG2 VAL A   1      19.192  16.916  42.751  0.00  0.00    +0.002 C 
ATOM     31  CG1 VAL A   1      16.785  16.353  42.717  0.00  0.00    +0.002 C 
ENDBRANCH  28  29
BRANCH  28  32
ATOM     32  N   VAL A   1      19.173  15.947  39.761  0.00  0.00    -0.238 NA
ATOM     33  H   VAL A   1      20.085  15.767  40.226  0.00  0.00    +0.142 HD
ENDBRANCH  28  32
ENDBRANCH  24  28
ENDBRANCH  23  25
BRANCH  23  34
ATOM     34  CB  LEU A   2      20.555  20.597  40.023  0.00  0.00    +0.029 C 
BRANCH  34  35
ATOM     35  CG  LEU A   2      21.396  20.334  41.268  0.00  0.00    +0.002 C 
ATOM     36  CD2 LEU A   2      20.614  20.680  42.534  0.00  0.00    +0.000 C 
ATOM     37  CD1 LEU A   2      22.689  21.124  41.191  0.00  0.00    +0.000 C 
ENDBRANCH  34  35
ENDBRANCH  23  34
ENDBRANCH   1  23
TORSDOF 14
REMARK  Name = ../refined-set-2016/3t6b/3t6b_pocket.pdb
REMARK  288 active torsions:
REMARK  status: ('A' for Active; 'I' for Inactive)
REMARK    1  A    between atoms: _1  and  _3
REMARK    2  A    between atoms: _3  and  _4
REMARK    3  A    between atoms: _6  and  _8
REMARK    4  A    between atoms: _8  and  _9
REMARK    5  A    between atoms: _8  and  _11
REMARK    6  A    between atoms: _11  and  _12
REMARK    7  A    between atoms: _14  and  _16
REMARK    8  A    between atoms: _16  and  _17
REMARK    9  A    between atoms: _16  and  _19
REMARK   10  A    between atoms: _19  and  _20
REMARK   11  A    between atoms: _23  and  _25
REMARK   12  A    between atoms: _25  and  _26
REMARK   13  A    between atoms: _25  and  _28
REMARK   14  A    between atoms: _28  and  _29
REMARK   15  A    between atoms: _31  and  _33
REMARK   16  A    between atoms: _33  and  _34
REMARK   17  A    between atoms: _33  and  _36
REMARK   18  A    between atoms: _36  and  _37
REMARK   19  A    between atoms: _43  and  _45
REMARK   20  A    between atoms: _45  and  _46
REMARK   21  A    between atoms: _45  and  _48
REMARK   22  A    between atoms: _48  and  _49
REMARK   23  A    between atoms: _54  and  _55
REMARK   24  A    between atoms: _57  and  _59
REMARK   25  A    between atoms: _59  and  _60
REMARK   26  A    between atoms: _59  and  _62
REMARK   27  A    between atoms: _62  and  _63
REMARK   28  A    between atoms: _66  and  _68
REMARK   29  A    between atoms: _68  and  _69
REMARK   30  A    between atoms: _68  and  _71
REMARK   31  A    between atoms: _71  and  _72
REMARK   32  A    between atoms: _72  and  _73
REMARK   33  A    between atoms: _76  and  _78
REMARK   34  A    between atoms: _78  and  _79
REMARK   35  A    between atoms: _78  and  _81
REMARK   36  A    between atoms: _81  and  _82
REMARK   37  A    between atoms: _84  and  _86
REMARK   38  A    between atoms: _86  and  _87
REMARK   39  A    between atoms: _86  and  _89
REMARK   40  A    between atoms: _89  and  _90
REMARK   41  A    between atoms: _95  and  _96
REMARK   42  A    between atoms: _98  and  _100
REMARK   43  A    between atoms: _100  and  _101
REMARK   44  A    between atoms: _100  and  _103
REMARK   45  A    between atoms: _103  and  _104
REMARK   46  A    between atoms: _104  and  _105
REMARK   47  A    between atoms: _108  and  _110
REMARK   48  A    between atoms: _110  and  _111
REMARK   49  A    between atoms: _110  and  _113
REMARK   50  A    between atoms: _113  and  _114
REMARK   51  A    between atoms: _120  and  _122
REMARK   52  A    between atoms: _122  and  _123
REMARK   53  A    between atoms: _122  and  _125
REMARK   54  A    between atoms: _125  and  _126
REMARK   55  A    between atoms: _128  and  _130
REMARK   56  A    between atoms: _130  and  _131
REMARK   57  A    between atoms: _133  and  _135
REMARK   58  A    between atoms: _135  and  _136
REMARK   59  A    between atoms: _135  and  _138
REMARK   60  A    between atoms: _138  and  _139
REMARK   61  A    between atoms: _143  and  _144
REMARK   62  A    between atoms: _149  and  _151
REMARK   63  A    between atoms: _151  and  _152
REMARK   64  A    between atoms: _155  and  _157
REMARK   65  A    between atoms: _157  and  _158
REMARK   66  A    between atoms: _160  and  _162
REMARK   67  A    between atoms: _162  and  _163
REMARK   68  A    between atoms: _162  and  _165
REMARK   69  A    between atoms: _165  and  _166
REMARK   70  A    between atoms: _169  and  _171
REMARK   71  A    between atoms: _171  and  _172
REMARK   72  A    between atoms: _171  and  _174
REMARK   73  A    between atoms: _174  and  _175
REMARK   74  A    between atoms: _180  and  _182
REMARK   75  A    between atoms: _182  and  _183
REMARK   76  A    between atoms: _182  and  _185
REMARK   77  A    between atoms: _185  and  _186
REMARK   78  A    between atoms: _190  and  _191
REMARK   79  A    between atoms: _196  and  _198
REMARK   80  A    between atoms: _198  and  _199
REMARK   81  A    between atoms: _198  and  _201
REMARK   82  A    between atoms: _201  and  _202
REMARK   83  A    between atoms: _207  and  _209
REMARK   84  A    between atoms: _209  and  _210
REMARK   85  A    between atoms: _209  and  _212
REMARK   86  A    between atoms: _212  and  _213
REMARK   87  A    between atoms: _218  and  _219
REMARK   88  A    between atoms: _221  and  _223
REMARK   89  A    between atoms: _223  and  _224
REMARK   90  A    between atoms: _223  and  _226
REMARK   91  A    between atoms: _226  and  _227
REMARK   92  A    between atoms: _230  and  _232
REMARK   93  A    between atoms: _232  and  _233
REMARK   94  A    between atoms: _232  and  _235
REMARK   95  A    between atoms: _235  and  _236
REMARK   96  A    between atoms: _236  and  _237
REMARK   97  A    between atoms: _237  and  _238
REMARK   98  A    between atoms: _247  and  _249
REMARK   99  A    between atoms: _249  and  _250
REMARK  100  A    between atoms: _249  and  _252
REMARK  101  A    between atoms: _252  and  _253
REMARK  102  A    between atoms: _253  and  _254
REMARK  103  A    between atoms: _254  and  _255
REMARK  104  A    between atoms: _255  and  _256
REMARK  105  A    between atoms: _260  and  _262
REMARK  106  A    between atoms: _262  and  _263
REMARK  107  A    between atoms: _262  and  _265
REMARK  108  A    between atoms: _265  and  _266
REMARK  109  A    between atoms: _271  and  _273
REMARK  110  A    between atoms: _273  and  _274
REMARK  111  A    between atoms: _273  and  _276
REMARK  112  A    between atoms: _279  and  _281
REMARK  113  A    between atoms: _281  and  _282
REMARK  114  A    between atoms: _281  and  _284
REMARK  115  A    between atoms: _284  and  _285
REMARK  116  A    between atoms: _288  and  _290
REMARK  117  A    between atoms: _290  and  _291
REMARK  118  A    between atoms: _290  and  _293
REMARK  119  A    between atoms: _296  and  _298
REMARK  120  A    between atoms: _298  and  _299
REMARK  121  A    between atoms: _298  and  _301
REMARK  122  A    between atoms: _301  and  _302
REMARK  123  A    between atoms: _305  and  _307
REMARK  124  A    between atoms: _307  and  _308
REMARK  125  A    between atoms: _311  and  _313
REMARK  126  A    between atoms: _313  and  _314
REMARK  127  A    between atoms: _313  and  _316
REMARK  128  A    between atoms: _319  and  _321
REMARK  129  A    between atoms: _321  and  _322
REMARK  130  A    between atoms: _325  and  _327
REMARK  131  A    between atoms: _327  and  _328
REMARK  132  A    between atoms: _331  and  _333
REMARK  133  A    between atoms: _333  and  _334
REMARK  134  A    between atoms: _333  and  _336
REMARK  135  A    between atoms: _336  and  _337
REMARK  136  A    between atoms: _342  and  _343
REMARK  137  A    between atoms: _345  and  _347
REMARK  138  A    between atoms: _347  and  _348
REMARK  139  A    between atoms: _347  and  _350
REMARK  140  A    between atoms: _350  and  _351
REMARK  141  A    between atoms: _351  and  _352
REMARK  142  A    between atoms: _352  and  _353
REMARK  143  A    between atoms: _353  and  _354
REMARK  144  A    between atoms: _358  and  _360
REMARK  145  A    between atoms: _360  and  _361
REMARK  146  A    between atoms: _360  and  _363
REMARK  147  A    between atoms: _363  and  _364
REMARK  148  A    between atoms: _366  and  _368
REMARK  149  A    between atoms: _368  and  _369
REMARK  150  A    between atoms: _368  and  _371
REMARK  151  A    between atoms: _371  and  _372
REMARK  152  A    between atoms: _378  and  _380
REMARK  153  A    between atoms: _380  and  _381
REMARK  154  A    between atoms: _380  and  _383
REMARK  155  A    between atoms: _383  and  _384
REMARK  156  A    between atoms: _387  and  _389
REMARK  157  A    between atoms: _389  and  _390
REMARK  158  A    between atoms: _389  and  _392
REMARK  159  A    between atoms: _395  and  _397
REMARK  160  A    between atoms: _397  and  _398
REMARK  161  A    between atoms: _397  and  _400
REMARK  162  A    between atoms: _400  and  _401
REMARK  163  A    between atoms: _401  and  _402
REMARK  164  A    between atoms: _407  and  _409
REMARK  165  A    between atoms: _409  and  _410
REMARK  166  A    between atoms: _409  and  _412
REMARK  167  A    between atoms: _415  and  _417
REMARK  168  A    between atoms: _417  and  _418
REMARK  169  A    between atoms: _420  and  _422
REMARK  170  A    between atoms: _422  and  _423
REMARK  171  A    between atoms: _422  and  _425
REMARK  172  A    between atoms: _425  and  _426
REMARK  173  A    between atoms: _429  and  _431
REMARK  174  A    between atoms: _431  and  _432
REMARK  175  A    between atoms: _431  and  _434
REMARK  176  A    between atoms: _434  and  _435
REMARK  177  A    between atoms: _440  and  _442
REMARK  178  A    between atoms: _442  and  _443
REMARK  179  A    between atoms: _446  and  _448
REMARK  180  A    between atoms: _448  and  _449
REMARK  181  A    between atoms: _448  and  _451
REMARK  182  A    between atoms: _451  and  _452
REMARK  183  A    between atoms: _457  and  _459
REMARK  184  A    between atoms: _459  and  _460
REMARK  185  A    between atoms: _459  and  _462
REMARK  186  A    between atoms: _462  and  _463
REMARK  187  A    between atoms: _473  and  _475
REMARK  188  A    between atoms: _475  and  _476
REMARK  189  A    between atoms: _475  and  _478
REMARK  190  A    between atoms: _478  and  _479
REMARK  191  A    between atoms: _482  and  _484
REMARK  192  A    between atoms: _484  and  _485
REMARK  193  A    between atoms: _488  and  _490
REMARK  194  A    between atoms: _490  and  _491
REMARK  195  A    between atoms: _490  and  _493
REMARK  196  A    between atoms: _493  and  _494
REMARK  197  A    between atoms: _496  and  _498
REMARK  198  A    between atoms: _498  and  _499
REMARK  199  A    between atoms: _498  and  _501
REMARK  200  A    between atoms: _501  and  _502
REMARK  201  A    between atoms: _502  and  _503
REMARK  202  A    between atoms: _506  and  _508
REMARK  203  A    between atoms: _508  and  _509
REMARK  204  A    between atoms: _508  and  _511
REMARK  205  A    between atoms: _511  and  _512
REMARK  206  A    between atoms: _512  and  _513
REMARK  207  A    between atoms: _516  and  _518
REMARK  208  A    between atoms: _518  and  _519
REMARK  209  A    between atoms: _518  and  _521
REMARK  210  A    between atoms: _521  and  _522
REMARK  211  A    between atoms: _522  and  _523
REMARK  212  A    between atoms: _523  and  _524
REMARK  213  A    between atoms: _533  and  _535
REMARK  214  A    between atoms: _535  and  _536
REMARK  215  A    between atoms: _539  and  _541
REMARK  216  A    between atoms: _541  and  _542
REMARK  217  A    between atoms: _541  and  _544
REMARK  218  A    between atoms: _544  and  _545
REMARK  219  A    between atoms: _545  and  _546
REMARK  220  A    between atoms: _549  and  _551
REMARK  221  A    between atoms: _551  and  _552
REMARK  222  A    between atoms: _554  and  _556
REMARK  223  A    between atoms: _556  and  _557
REMARK  224  A    between atoms: _556  and  _559
REMARK  225  A    between atoms: _559  and  _560
REMARK  226  A    between atoms: _565  and  _567
REMARK  227  A    between atoms: _567  and  _568
REMARK  228  A    between atoms: _567  and  _570
REMARK  229  A    between atoms: _570  and  _571
REMARK  230  A    between atoms: _576  and  _578
REMARK  231  A    between atoms: _578  and  _579
REMARK  232  A    between atoms: _578  and  _581
REMARK  233  A    between atoms: _581  and  _582
REMARK  234  A    between atoms: _582  and  _583
REMARK  235  A    between atoms: _585  and  _587
REMARK  236  A    between atoms: _587  and  _588
REMARK  237  A    between atoms: _587  and  _590
REMARK  238  A    between atoms: _590  and  _591
REMARK  239  A    between atoms: _591  and  _592
REMARK  240  A    between atoms: _597  and  _599
REMARK  241  A    between atoms: _599  and  _600
REMARK  242  A    between atoms: _603  and  _605
REMARK  243  A    between atoms: _605  and  _606
REMARK  244  A    between atoms: _605  and  _608
REMARK  245  A    between atoms: _608  and  _609
REMARK  246  A    between atoms: _614  and  _616
REMARK  247  A    between atoms: _616  and  _617
REMARK  248  A    between atoms: _616  and  _619
REMARK  249  A    between atoms: _619  and  _620
REMARK  250  A    between atoms: _620  and  _621
REMARK  251  A    between atoms: _623  and  _625
REMARK  252  A    between atoms: _625  and  _626
REMARK  253  A    between atoms: _625  and  _628
REMARK  254  A    between atoms: _628  and  _629
REMARK  255  A    between atoms: _629  and  _630
REMARK  256  A    between atoms: _630  and  _631
REMARK  257  A    between atoms: _640  and  _642
REMARK  258  A    between atoms: _642  and  _643
REMARK  259  A    between atoms: _642  and  _645
REMARK  260  A    between atoms: _645  and  _646
REMARK  261  A    between atoms: _646  and  _647
REMARK  262  A    between atoms: _647  and  _648
REMARK  263  A    between atoms: _648  and  _649
REMARK  264  A    between atoms: _653  and  _655
REMARK  265  A    between atoms: _655  and  _656
REMARK  266  A    between atoms: _655  and  _658
REMARK  267  A    between atoms: _658  and  _659
REMARK  268  A    between atoms: _661  and  _663
REMARK  269  A    between atoms: _663  and  _664
REMARK  270  A    between atoms: _663  and  _666
REMARK  271  A    between atoms: _666  and  _667
REMARK  272  A    between atoms: _667  and  _668
REMARK  273  A    between atoms: _668  and  _669
REMARK  274  A    between atoms: _678  and  _680
REMARK  275  A    between atoms: _680  and  _681
REMARK  276  A    between atoms: _680  and  _683
REMARK  277  A    between atoms: _683  and  _684
REMARK  278  A    between atoms: _684  and  _685
REMARK  279  A    between atoms: _685  and  _686
REMARK  280  A    between atoms: _686  and  _687
REMARK  281  A    between atoms: _691  and  _693
REMARK  282  A    between atoms: _693  and  _694
REMARK  283  A    between atoms: _693  and  _696
REMARK  284  A    between atoms: _696  and  _697
REMARK  285  A    between atoms: _700  and  _702
REMARK  286  A    between atoms: _702  and  _703
REMARK  287  A    between atoms: _702  and  _705
REMARK  288  A    between atoms: _705  and  _706
REMARK                            x       y       z     vdW  Elec       q    Type
REMARK                         _______ _______ _______ _____ _____    ______ ____
ROOT
ATOM      1  CA  ALA A   1      11.269  24.917  36.410  0.00  0.00    +0.133 C 
ATOM      2  CB  ALA A   1      10.430  23.692  36.759  0.00  0.00    +0.027 C 
ENDROOT
BRANCH   1   3
ATOM      3  N   ALA A   1      12.677  24.664  36.702  0.00  0.00    -0.239 NA
ATOM      4  H   ALA A   1      12.899  23.847  37.306  0.00  0.00    +0.142 HD
ENDBRANCH   1   3
BRANCH   1   5
ATOM      5  C   ALA A   1      10.748  26.143  37.144  0.00  0.00    +0.224 C 
ATOM      6  O   ALA A   1      11.533  26.977  37.595  0.00  0.00    -0.287 OA
ENDBRANCH   1   5
TORSDOF 2
REMARK  Name = ../refined-set-2016/3t6b/3t6b_pocket.pdb
REMARK  288 active torsions:
REMARK  status: ('A' for Active; 'I' for Inactive)
REMARK    1  A    between atoms: _1  and  _3
REMARK    2  A    between atoms: _3  and  _4
REMARK    3  A    between atoms: _6  and  _8
REMARK    4  A    between atoms: _8  and  _9
REMARK    5  A    between atoms: _8  and  _11
REMARK    6  A    between atoms: _11  and  _12
REMARK    7  A    between atoms: _14  and  _16
REMARK    8  A    between atoms: _16  and  _17
REMARK    9  A    between atoms: _16  and  _19
REMARK   10  A    between atoms: _19  and  _20
REMARK   11  A    between atoms: _23  and  _25
REMARK   12  A    between atoms: _25  and  _26
REMARK   13  A    between atoms: _25  and  _28
REMARK   14  A    between atoms: _28  and  _29
REMARK   15  A    between atoms: _31  and  _33
REMARK   16  A    between atoms: _33  and  _34
REMARK   17  A    between atoms: _33  and  _36
REMARK   18  A    between atoms: _36  and  _37
REMARK   19  A    between atoms: _43  and  _45
REMARK   20  A    between atoms: _45  and  _46
REMARK   21  A    between atoms: _45  and  _48
REMARK   22  A    between atoms: _48  and  _49
REMARK   23  A    between atoms: _54  and  _55
REMARK   24  A    between atoms: _57  and  _59
REMARK   25  A    between atoms: _59  and  _60
REMARK   26  A    between atoms: _59  and  _62
REMARK   27  A    between atoms: _62  and  _63
REMARK   28  A    between atoms: _66  and  _68
REMARK   29  A    between atoms: _68  and  _69
REMARK   30  A    between atoms: _68  and  _71
REMARK   31  A    between atoms: _71  and  _72
REMARK   32  A    between atoms: _72  and  _73
REMARK   33  A    between atoms: _76  and  _78
REMARK   34  A    between atoms: _78  and  _79
REMARK   35  A    between atoms: _78  and  _81
REMARK   36  A    between atoms: _81  and  _82
REMARK   37  A    between atoms: _84  and  _86
REMARK   38  A    between atoms: _86  and  _87
REMARK   39  A    between atoms: _86  and  _89
REMARK   40  A    between atoms: _89  and  _90
REMARK   41  A    between atoms: _95  and  _96
REMARK   42  A    between atoms: _98  and  _100
REMARK   43  A    between atoms: _100  and  _101
REMARK   44  A    between atoms: _100  and  _103
REMARK   45  A    between atoms: _103  and  _104
REMARK   46  A    between atoms: _104  and  _105
REMARK   47  A    between atoms: _108  and  _110
REMARK   48  A    between atoms: _110  and  _111
REMARK   49  A    between atoms: _110  and  _113
REMARK   50  A    between atoms: _113  and  _114
REMARK   51  A    between atoms: _120  and  _122
REMARK   52  A    between atoms: _122  and  _123
REMARK   53  A    between atoms: _122  and  _125
REMARK   54  A    between atoms: _125  and  _126
REMARK   55  A    between atoms: _128  and  _130
REMARK   56  A    between atoms: _130  and  _131
REMARK   57  A    between atoms: _133  and  _135
REMARK   58  A    between atoms: _135  and  _136
REMARK   59  A    between atoms: _135  and  _138
REMARK   60  A    between atoms: _138  and  _139
REMARK   61  A    between atoms: _143  and  _144
REMARK   62  A    between atoms: _149  and  _151
REMARK   63  A    between atoms: _151  and  _152
REMARK   64  A    between atoms: _155  and  _157
REMARK   65  A    between atoms: _157  and  _158
REMARK   66  A    between atoms: _160  and  _162
REMARK   67  A    between atoms: _162  and  _163
REMARK   68  A    between atoms: _162  and  _165
REMARK   69  A    between atoms: _165  and  _166
REMARK   70  A    between atoms: _169  and  _171
REMARK   71  A    between atoms: _171  and  _172
REMARK   72  A    between atoms: _171  and  _174
REMARK   73  A    between atoms: _174  and  _175
REMARK   74  A    between atoms: _180  and  _182
REMARK   75  A    between atoms: _182  and  _183
REMARK   76  A    between atoms: _182  and  _185
REMARK   77  A    between atoms: _185  and  _186
REMARK   78  A    between atoms: _190  and  _191
REMARK   79  A    between atoms: _196  and  _198
REMARK   80  A    between atoms: _198  and  _199
REMARK   81  A    between atoms: _198  and  _201
REMARK   82  A    between atoms: _201  and  _202
REMARK   83  A    between atoms: _207  and  _209
REMARK   84  A    between atoms: _209  and  _210
REMARK   85  A    between atoms: _209  and  _212
REMARK   86  A    between atoms: _212  and  _213
REMARK   87  A    between atoms: _218  and  _219
REMARK   88  A    between atoms: _221  and  _223
REMARK   89  A    between atoms: _223  and  _224
REMARK   90  A    between atoms: _223  and  _226
REMARK   91  A    between atoms: _226  and  _227
REMARK   92  A    between atoms: _230  and  _232
REMARK   93  A    between atoms: _232  and  _233
REMARK   94  A    between atoms: _232  and  _235
REMARK   95  A    between atoms: _235  and  _236
REMARK   96  A    between atoms: _236  and  _237
REMARK   97  A    between atoms: _237  and  _238
REMARK   98  A    between atoms: _247  and  _249
REMARK   99  A    between atoms: _249  and  _250
REMARK  100  A    between atoms: _249  and  _252
REMARK  101  A    between atoms: _252  and  _253
REMARK  102  A    between atoms: _253  and  _254
REMARK  103  A    between atoms: _254  and  _255
REMARK  104  A    between atoms: _255  and  _256
REMARK  105  A    between atoms: _260  and  _262
REMARK  106  A    between atoms: _262  and  _263
REMARK  107  A    between atoms: _262  and  _265
REMARK  108  A    between atoms: _265  and  _266
REMARK  109  A    between atoms: _271  and  _273
REMARK  110  A    between atoms: _273  and  _274
REMARK  111  A    between atoms: _273  and  _276
REMARK  112  A    between atoms: _279  and  _281
REMARK  113  A    between atoms: _281  and  _282
REMARK  114  A    between atoms: _281  and  _284
REMARK  115  A    between atoms: _284  and  _285
REMARK  116  A    between atoms: _288  and  _290
REMARK  117  A    between atoms: _290  and  _291
REMARK  118  A    between atoms: _290  and  _293
REMARK  119  A    between atoms: _296  and  _298
REMARK  120  A    between atoms: _298  and  _299
REMARK  121  A    between atoms: _298  and  _301
REMARK  122  A    between atoms: _301  and  _302
REMARK  123  A    between atoms: _305  and  _307
REMARK  124  A    between atoms: _307  and  _308
REMARK  125  A    between atoms: _311  and  _313
REMARK  126  A    between atoms: _313  and  _314
REMARK  127  A    between atoms: _313  and  _316
REMARK  128  A    between atoms: _319  and  _321
REMARK  129  A    between atoms: _321  and  _322
REMARK  130  A    between atoms: _325  and  _327
REMARK  131  A    between atoms: _327  and  _328
REMARK  132  A    between atoms: _331  and  _333
REMARK  133  A    between atoms: _333  and  _334
REMARK  134  A    between atoms: _333  and  _336
REMARK  135  A    between atoms: _336  and  _337
REMARK  136  A    between atoms: _342  and  _343
REMARK  137  A    between atoms: _345  and  _347
REMARK  138  A    between atoms: _347  and  _348
REMARK  139  A    between atoms: _347  and  _350
REMARK  140  A    between atoms: _350  and  _351
REMARK  141  A    between atoms: _351  and  _352
REMARK  142  A    between atoms: _352  and  _353
REMARK  143  A    between atoms: _353  and  _354
REMARK  144  A    between atoms: _358  and  _360
REMARK  145  A    between atoms: _360  and  _361
REMARK  146  A    between atoms: _360  and  _363
REMARK  147  A    between atoms: _363  and  _364
REMARK  148  A    between atoms: _366  and  _368
REMARK  149  A    between atoms: _368  and  _369
REMARK  150  A    between atoms: _368  and  _371
REMARK  151  A    between atoms: _371  and  _372
REMARK  152  A    between atoms: _378  and  _380
REMARK  153  A    between atoms: _380  and  _381
REMARK  154  A    between atoms: _380  and  _383
REMARK  155  A    between atoms: _383  and  _384
REMARK  156  A    between atoms: _387  and  _389
REMARK  157  A    between atoms: _389  and  _390
REMARK  158  A    between atoms: _389  and  _392
REMARK  159  A    between atoms: _395  and  _397
REMARK  160  A    between atoms: _397  and  _398
REMARK  161  A    between atoms: _397  and  _400
REMARK  162  A    between atoms: _400  and  _401
REMARK  163  A    between atoms: _401  and  _402
REMARK  164  A    between atoms: _407  and  _409
REMARK  165  A    between atoms: _409  and  _410
REMARK  166  A    between atoms: _409  and  _412
REMARK  167  A    between atoms: _415  and  _417
REMARK  168  A    between atoms: _417  and  _418
REMARK  169  A    between atoms: _420  and  _422
REMARK  170  A    between atoms: _422  and  _423
REMARK  171  A    between atoms: _422  and  _425
REMARK  172  A    between atoms: _425  and  _426
REMARK  173  A    between atoms: _429  and  _431
REMARK  174  A    between atoms: _431  and  _432
REMARK  175  A    between atoms: _431  and  _434
REMARK  176  A    between atoms: _434  and  _435
REMARK  177  A    between atoms: _440  and  _442
REMARK  178  A    between atoms: _442  and  _443
REMARK  179  A    between atoms: _446  and  _448
REMARK  180  A    between atoms: _448  and  _449
REMARK  181  A    between atoms: _448  and  _451
REMARK  182  A    between atoms: _451  and  _452
REMARK  183  A    between atoms: _457  and  _459
REMARK  184  A    between atoms: _459  and  _460
REMARK  185  A    between atoms: _459  and  _462
REMARK  186  A    between atoms: _462  and  _463
REMARK  187  A    between atoms: _473  and  _475
REMARK  188  A    between atoms: _475  and  _476
REMARK  189  A    between atoms: _475  and  _478
REMARK  190  A    between atoms: _478  and  _479
REMARK  191  A    between atoms: _482  and  _484
REMARK  192  A    between atoms: _484  and  _485
REMARK  193  A    between atoms: _488  and  _490
REMARK  194  A    between atoms: _490  and  _491
REMARK  195  A    between atoms: _490  and  _493
REMARK  196  A    between atoms: _493  and  _494
REMARK  197  A    between atoms: _496  and  _498
REMARK  198  A    between atoms: _498  and  _499
REMARK  199  A    between atoms: _498  and  _501
REMARK  200  A    between atoms: _501  and  _502
REMARK  201  A    between atoms: _502  and  _503
REMARK  202  A    between atoms: _506  and  _508
REMARK  203  A    between atoms: _508  and  _509
REMARK  204  A    between atoms: _508  and  _511
REMARK  205  A    between atoms: _511  and  _512
REMARK  206  A    between atoms: _512  and  _513
REMARK  207  A    between atoms: _516  and  _518
REMARK  208  A    between atoms: _518  and  _519
REMARK  209  A    between atoms: _518  and  _521
REMARK  210  A    between atoms: _521  and  _522
REMARK  211  A    between atoms: _522  and  _523
REMARK  212  A    between atoms: _523  and  _524
REMARK  213  A    between atoms: _533  and  _535
REMARK  214  A    between atoms: _535  and  _536
REMARK  215  A    between atoms: _539  and  _541
REMARK  216  A    between atoms: _541  and  _542
REMARK  217  A    between atoms: _541  and  _544
REMARK  218  A    between atoms: _544  and  _545
REMARK  219  A    between atoms: _545  and  _546
REMARK  220  A    between atoms: _549  and  _551
REMARK  221  A    between atoms: _551  and  _552
REMARK  222  A    between atoms: _554  and  _556
REMARK  223  A    between atoms: _556  and  _557
REMARK  224  A    between atoms: _556  and  _559
REMARK  225  A    between atoms: _559  and  _560
REMARK  226  A    between atoms: _565  and  _567
REMARK  227  A    between atoms: _567  and  _568
REMARK  228  A    between atoms: _567  and  _570
REMARK  229  A    between atoms: _570  and  _571
REMARK  230  A    between atoms: _576  and  _578
REMARK  231  A    between atoms: _578  and  _579
REMARK  232  A    between atoms: _578  and  _581
REMARK  233  A    between atoms: _581  and  _582
REMARK  234  A    between atoms: _582  and  _583
REMARK  235  A    between atoms: _585  and  _587
REMARK  236  A    between atoms: _587  and  _588
REMARK  237  A    between atoms: _587  and  _590
REMARK  238  A    between atoms: _590  and  _591
REMARK  239  A    between atoms: _591  and  _592
REMARK  240  A    between atoms: _597  and  _599
REMARK  241  A    between atoms: _599  and  _600
REMARK  242  A    between atoms: _603  and  _605
REMARK  243  A    between atoms: _605  and  _606
REMARK  244  A    between atoms: _605  and  _608
REMARK  245  A    between atoms: _608  and  _609
REMARK  246  A    between atoms: _614  and  _616
REMARK  247  A    between atoms: _616  and  _617
REMARK  248  A    between atoms: _616  and  _619
REMARK  249  A    between atoms: _619  and  _620
REMARK  250  A    between atoms: _620  and  _621
REMARK  251  A    between atoms: _623  and  _625
REMARK  252  A    between atoms: _625  and  _626
REMARK  253  A    between atoms: _625  and  _628
REMARK  254  A    between atoms: _628  and  _629
REMARK  255  A    between atoms: _629  and  _630
REMARK  256  A    between atoms: _630  and  _631
REMARK  257  A    between atoms: _640  and  _642
REMARK  258  A    between atoms: _642  and  _643
REMARK  259  A    between atoms: _642  and  _645
REMARK  260  A    between atoms: _645  and  _646
REMARK  261  A    between atoms: _646  and  _647
REMARK  262  A    between atoms: _647  and  _648
REMARK  263  A    between atoms: _648  and  _649
REMARK  264  A    between atoms: _653  and  _655
REMARK  265  A    between atoms: _655  and  _656
REMARK  266  A    between atoms: _655  and  _658
REMARK  267  A    between atoms: _658  and  _659
REMARK  268  A    between atoms: _661  and  _663
REMARK  269  A    between atoms: _663  and  _664
REMARK  270  A    between atoms: _663  and  _666
REMARK  271  A    between atoms: _666  and  _667
REMARK  272  A    between atoms: _667  and  _668
REMARK  273  A    between atoms: _668  and  _669
REMARK  274  A    between atoms: _678  and  _680
REMARK  275  A    between atoms: _680  and  _681
REMARK  276  A    between atoms: _680  and  _683
REMARK  277  A    between atoms: _683  and  _684
REMARK  278  A    between atoms: _684  and  _685
REMARK  279  A    between atoms: _685  and  _686
REMARK  280  A    between atoms: _686  and  _687
REMARK  281  A    between atoms: _691  and  _693
REMARK  282  A    between atoms: _693  and  _694
REMARK  283  A    between atoms: _693  and  _696
REMARK  284  A    between atoms: _696  and  _697
REMARK  285  A    between atoms: _700  and  _702
REMARK  286  A    between atoms: _702  and  _703
REMARK  287  A    between atoms: _702  and  _705
REMARK  288  A    between atoms: _705  and  _706
REMARK                            x       y       z     vdW  Elec       q    Type
REMARK                         _______ _______ _______ _____ _____    ______ ____
ROOT
ATOM      1  CG  TYR A   1      14.190  34.033  40.645  0.00  0.00    -0.020 A 
ATOM      2  CD2 TYR A   1      14.462  34.023  42.007  0.00  0.00    -0.001 A 
ATOM      3  CE2 TYR A   1      14.242  32.894  42.770  0.00  0.00    +0.036 A 
ATOM      4  CZ  TYR A   1      13.742  31.756  42.175  0.00  0.00    +0.134 A 
ATOM      5  CE1 TYR A   1      13.463  31.742  40.824  0.00  0.00    +0.036 A 
ATOM      6  CD1 TYR A   1      13.686  32.875  40.070  0.00  0.00    -0.001 A 
ENDROOT
BRANCH   4   7
ATOM      7  OH  TYR A   1      13.519  30.623  42.933  0.00  0.00    -0.506 OA
ATOM      8  HH  TYR A   1      13.162  29.904  42.353  0.00  0.00    +0.292 HD
ENDBRANCH   4   7
BRANCH   1   9
ATOM      9  CB  TYR A   1      14.435  35.270  39.813  0.00  0.00    +0.051 C 
BRANCH   9  10
ATOM     10  CA  TYR A   1      15.775  35.256  39.076  0.00  0.00    +0.137 C 
BRANCH  10  11
ATOM     11  N   TYR A   1      16.057  36.552  38.480  0.00  0.00    -0.239 NA
ATOM     12  H   TYR A   1      15.397  37.342  38.629  0.00  0.00    +0.142 HD
ENDBRANCH  10  11
BRANCH  10  13
ATOM     13  C   TYR A   1      15.787  34.172  38.000  0.00  0.00    +0.224 C 
ATOM     14  O   TYR A   1      16.464  33.159  38.146  0.00  0.00    -0.287 OA
ENDBRANCH  10  13
ENDBRANCH   9  10
ENDBRANCH   1   9
TORSDOF 5
REMARK  Name = ../refined-set-2016/3t6b/3t6b_pocket.pdb
REMARK  288 active torsions:
REMARK  status: ('A' for Active; 'I' for Inactive)
REMARK    1  A    between atoms: _1  and  _3
REMARK    2  A    between atoms: _3  and  _4
REMARK    3  A    between atoms: _6  and  _8
REMARK    4  A    between atoms: _8  and  _9
REMARK    5  A    between atoms: _8  and  _11
REMARK    6  A    between atoms: _11  and  _12
REMARK    7  A    between atoms: _14  and  _16
REMARK    8  A    between atoms: _16  and  _17
REMARK    9  A    between atoms: _16  and  _19
REMARK   10  A    between atoms: _19  and  _20
REMARK   11  A    between atoms: _23  and  _25
REMARK   12  A    between atoms: _25  and  _26
REMARK   13  A    between atoms: _25  and  _28
REMARK   14  A    between atoms: _28  and  _29
REMARK   15  A    between atoms: _31  and  _33
REMARK   16  A    between atoms: _33  and  _34
REMARK   17  A    between atoms: _33  and  _36
REMARK   18  A    between atoms: _36  and  _37
REMARK   19  A    between atoms: _43  and  _45
REMARK   20  A    between atoms: _45  and  _46
REMARK   21  A    between atoms: _45  and  _48
REMARK   22  A    between atoms: _48  and  _49
REMARK   23  A    between atoms: _54  and  _55
REMARK   24  A    between atoms: _57  and  _59
REMARK   25  A    between atoms: _59  and  _60
REMARK   26  A    between atoms: _59  and  _62
REMARK   27  A    between atoms: _62  and  _63
REMARK   28  A    between atoms: _66  and  _68
REMARK   29  A    between atoms: _68  and  _69
REMARK   30  A    between atoms: _68  and  _71
REMARK   31  A    between atoms: _71  and  _72
REMARK   32  A    between atoms: _72  and  _73
REMARK   33  A    between atoms: _76  and  _78
REMARK   34  A    between atoms: _78  and  _79
REMARK   35  A    between atoms: _78  and  _81
REMARK   36  A    between atoms: _81  and  _82
REMARK   37  A    between atoms: _84  and  _86
REMARK   38  A    between atoms: _86  and  _87
REMARK   39  A    between atoms: _86  and  _89
REMARK   40  A    between atoms: _89  and  _90
REMARK   41  A    between atoms: _95  and  _96
REMARK   42  A    between atoms: _98  and  _100
REMARK   43  A    between atoms: _100  and  _101
REMARK   44  A    between atoms: _100  and  _103
REMARK   45  A    between atoms: _103  and  _104
REMARK   46  A    between atoms: _104  and  _105
REMARK   47  A    between atoms: _108  and  _110
REMARK   48  A    between atoms: _110  and  _111
REMARK   49  A    between atoms: _110  and  _113
REMARK   50  A    between atoms: _113  and  _114
REMARK   51  A    between atoms: _120  and  _122
REMARK   52  A    between atoms: _122  and  _123
REMARK   53  A    between atoms: _122  and  _125
REMARK   54  A    between atoms: _125  and  _126
REMARK   55  A    between atoms: _128  and  _130
REMARK   56  A    between atoms: _130  and  _131
REMARK   57  A    between atoms: _133  and  _135
REMARK   58  A    between atoms: _135  and  _136
REMARK   59  A    between atoms: _135  and  _138
REMARK   60  A    between atoms: _138  and  _139
REMARK   61  A    between atoms: _143  and  _144
REMARK   62  A    between atoms: _149  and  _151
REMARK   63  A    between atoms: _151  and  _152
REMARK   64  A    between atoms: _155  and  _157
REMARK   65  A    between atoms: _157  and  _158
REMARK   66  A    between atoms: _160  and  _162
REMARK   67  A    between atoms: _162  and  _163
REMARK   68  A    between atoms: _162  and  _165
REMARK   69  A    between atoms: _165  and  _166
REMARK   70  A    between atoms: _169  and  _171
REMARK   71  A    between atoms: _171  and  _172
REMARK   72  A    between atoms: _171  and  _174
REMARK   73  A    between atoms: _174  and  _175
REMARK   74  A    between atoms: _180  and  _182
REMARK   75  A    between atoms: _182  and  _183
REMARK   76  A    between atoms: _182  and  _185
REMARK   77  A    between atoms: _185  and  _186
REMARK   78  A    between atoms: _190  and  _191
REMARK   79  A    between atoms: _196  and  _198
REMARK   80  A    between atoms: _198  and  _199
REMARK   81  A    between atoms: _198  and  _201
REMARK   82  A    between atoms: _201  and  _202
REMARK   83  A    between atoms: _207  and  _209
REMARK   84  A    between atoms: _209  and  _210
REMARK   85  A    between atoms: _209  and  _212
REMARK   86  A    between atoms: _212  and  _213
REMARK   87  A    between atoms: _218  and  _219
REMARK   88  A    between atoms: _221  and  _223
REMARK   89  A    between atoms: _223  and  _224
REMARK   90  A    between atoms: _223  and  _226
REMARK   91  A    between atoms: _226  and  _227
REMARK   92  A    between atoms: _230  and  _232
REMARK   93  A    between atoms: _232  and  _233
REMARK   94  A    between atoms: _232  and  _235
REMARK   95  A    between atoms: _235  and  _236
REMARK   96  A    between atoms: _236  and  _237
REMARK   97  A    between atoms: _237  and  _238
REMARK   98  A    between atoms: _247  and  _249
REMARK   99  A    between atoms: _249  and  _250
REMARK  100  A    between atoms: _249  and  _252
REMARK  101  A    between atoms: _252  and  _253
REMARK  102  A    between atoms: _253  and  _254
REMARK  103  A    between atoms: _254  and  _255
REMARK  104  A    between atoms: _255  and  _256
REMARK  105  A    between atoms: _260  and  _262
REMARK  106  A    between atoms: _262  and  _263
REMARK  107  A    between atoms: _262  and  _265
REMARK  108  A    between atoms: _265  and  _266
REMARK  109  A    between atoms: _271  and  _273
REMARK  110  A    between atoms: _273  and  _274
REMARK  111  A    between atoms: _273  and  _276
REMARK  112  A    between atoms: _279  and  _281
REMARK  113  A    between atoms: _281  and  _282
REMARK  114  A    between atoms: _281  and  _284
REMARK  115  A    between atoms: _284  and  _285
REMARK  116  A    between atoms: _288  and  _290
REMARK  117  A    between atoms: _290  and  _291
REMARK  118  A    between atoms: _290  and  _293
REMARK  119  A    between atoms: _296  and  _298
REMARK  120  A    between atoms: _298  and  _299
REMARK  121  A    between atoms: _298  and  _301
REMARK  122  A    between atoms: _301  and  _302
REMARK  123  A    between atoms: _305  and  _307
REMARK  124  A    between atoms: _307  and  _308
REMARK  125  A    between atoms: _311  and  _313
REMARK  126  A    between atoms: _313  and  _314
REMARK  127  A    between atoms: _313  and  _316
REMARK  128  A    between atoms: _319  and  _321
REMARK  129  A    between atoms: _321  and  _322
REMARK  130  A    between atoms: _325  and  _327
REMARK  131  A    between atoms: _327  and  _328
REMARK  132  A    between atoms: _331  and  _333
REMARK  133  A    between atoms: _333  and  _334
REMARK  134  A    between atoms: _333  and  _336
REMARK  135  A    between atoms: _336  and  _337
REMARK  136  A    between atoms: _342  and  _343
REMARK  137  A    between atoms: _345  and  _347
REMARK  138  A    between atoms: _347  and  _348
REMARK  139  A    between atoms: _347  and  _350
REMARK  140  A    between atoms: _350  and  _351
REMARK  141  A    between atoms: _351  and  _352
REMARK  142  A    between atoms: _352  and  _353
REMARK  143  A    between atoms: _353  and  _354
REMARK  144  A    between atoms: _358  and  _360
REMARK  145  A    between atoms: _360  and  _361
REMARK  146  A    between atoms: _360  and  _363
REMARK  147  A    between atoms: _363  and  _364
REMARK  148  A    between atoms: _366  and  _368
REMARK  149  A    between atoms: _368  and  _369
REMARK  150  A    between atoms: _368  and  _371
REMARK  151  A    between atoms: _371  and  _372
REMARK  152  A    between atoms: _378  and  _380
REMARK  153  A    between atoms: _380  and  _381
REMARK  154  A    between atoms: _380  and  _383
REMARK  155  A    between atoms: _383  and  _384
REMARK  156  A    between atoms: _387  and  _389
REMARK  157  A    between atoms: _389  and  _390
REMARK  158  A    between atoms: _389  and  _392
REMARK  159  A    between atoms: _395  and  _397
REMARK  160  A    between atoms: _397  and  _398
REMARK  161  A    between atoms: _397  and  _400
REMARK  162  A    between atoms: _400  and  _401
REMARK  163  A    between atoms: _401  and  _402
REMARK  164  A    between atoms: _407  and  _409
REMARK  165  A    between atoms: _409  and  _410
REMARK  166  A    between atoms: _409  and  _412
REMARK  167  A    between atoms: _415  and  _417
REMARK  168  A    between atoms: _417  and  _418
REMARK  169  A    between atoms: _420  and  _422
REMARK  170  A    between atoms: _422  and  _423
REMARK  171  A    between atoms: _422  and  _425
REMARK  172  A    between atoms: _425  and  _426
REMARK  173  A    between atoms: _429  and  _431
REMARK  174  A    between atoms: _431  and  _432
REMARK  175  A    between atoms: _431  and  _434
REMARK  176  A    between atoms: _434  and  _435
REMARK  177  A    between atoms: _440  and  _442
REMARK  178  A    between atoms: _442  and  _443
REMARK  179  A    between atoms: _446  and  _448
REMARK  180  A    between atoms: _448  and  _449
REMARK  181  A    between atoms: _448  and  _451
REMARK  182  A    between atoms: _451  and  _452
REMARK  183  A    between atoms: _457  and  _459
REMARK  184  A    between atoms: _459  and  _460
REMARK  185  A    between atoms: _459  and  _462
REMARK  186  A    between atoms: _462  and  _463
REMARK  187  A    between atoms: _473  and  _475
REMARK  188  A    between atoms: _475  and  _476
REMARK  189  A    between atoms: _475  and  _478
REMARK  190  A    between atoms: _478  and  _479
REMARK  191  A    between atoms: _482  and  _484
REMARK  192  A    between atoms: _484  and  _485
REMARK  193  A    between atoms: _488  and  _490
REMARK  194  A    between atoms: _490  and  _491
REMARK  195  A    between atoms: _490  and  _493
REMARK  196  A    between atoms: _493  and  _494
REMARK  197  A    between atoms: _496  and  _498
REMARK  198  A    between atoms: _498  and  _499
REMARK  199  A    between atoms: _498  and  _501
REMARK  200  A    between atoms: _501  and  _502
REMARK  201  A    between atoms: _502  and  _503
REMARK  202  A    between atoms: _506  and  _508
REMARK  203  A    between atoms: _508  and  _509
REMARK  204  A    between atoms: _508  and  _511
REMARK  205  A    between atoms: _511  and  _512
REMARK  206  A    between atoms: _512  and  _513
REMARK  207  A    between atoms: _516  and  _518
REMARK  208  A    between atoms: _518  and  _519
REMARK  209  A    between atoms: _518  and  _521
REMARK  210  A    between atoms: _521  and  _522
REMARK  211  A    between atoms: _522  and  _523
REMARK  212  A    between atoms: _523  and  _524
REMARK  213  A    between atoms: _533  and  _535
REMARK  214  A    between atoms: _535  and  _536
REMARK  215  A    between atoms: _539  and  _541
REMARK  216  A    between atoms: _541  and  _542
REMARK  217  A    between atoms: _541  and  _544
REMARK  218  A    between atoms: _544  and  _545
REMARK  219  A    between atoms: _545  and  _546
REMARK  220  A    between atoms: _549  and  _551
REMARK  221  A    between atoms: _551  and  _552
REMARK  222  A    between atoms: _554  and  _556
REMARK  223  A    between atoms: _556  and  _557
REMARK  224  A    between atoms: _556  and  _559
REMARK  225  A    between atoms: _559  and  _560
REMARK  226  A    between atoms: _565  and  _567
REMARK  227  A    between atoms: _567  and  _568
REMARK  228  A    between atoms: _567  and  _570
REMARK  229  A    between atoms: _570  and  _571
REMARK  230  A    between atoms: _576  and  _578
REMARK  231  A    between atoms: _578  and  _579
REMARK  232  A    between atoms: _578  and  _581
REMARK  233  A    between atoms: _581  and  _582
REMARK  234  A    between atoms: _582  and  _583
REMARK  235  A    between atoms: _585  and  _587
REMARK  236  A    between atoms: _587  and  _588
REMARK  237  A    between atoms: _587  and  _590
REMARK  238  A    between atoms: _590  and  _591
REMARK  239  A    between atoms: _591  and  _592
REMARK  240  A    between atoms: _597  and  _599
REMARK  241  A    between atoms: _599  and  _600
REMARK  242  A    between atoms: _603  and  _605
REMARK  243  A    between atoms: _605  and  _606
REMARK  244  A    between atoms: _605  and  _608
REMARK  245  A    between atoms: _608  and  _609
REMARK  246  A    between atoms: _614  and  _616
REMARK  247  A    between atoms: _616  and  _617
REMARK  248  A    between atoms: _616  and  _619
REMARK  249  A    between atoms: _619  and  _620
REMARK  250  A    between atoms: _620  and  _621
REMARK  251  A    between atoms: _623  and  _625
REMARK  252  A    between atoms: _625  and  _626
REMARK  253  A    between atoms: _625  and  _628
REMARK  254  A    between atoms: _628  and  _629
REMARK  255  A    between atoms: _629  and  _630
REMARK  256  A    between atoms: _630  and  _631
REMARK  257  A    between atoms: _640  and  _642
REMARK  258  A    between atoms: _642  and  _643
REMARK  259  A    between atoms: _642  and  _645
REMARK  260  A    between atoms: _645  and  _646
REMARK  261  A    between atoms: _646  and  _647
REMARK  262  A    between atoms: _647  and  _648
REMARK  263  A    between atoms: _648  and  _649
REMARK  264  A    between atoms: _653  and  _655
REMARK  265  A    between atoms: _655  and  _656
REMARK  266  A    between atoms: _655  and  _658
REMARK  267  A    between atoms: _658  and  _659
REMARK  268  A    between atoms: _661  and  _663
REMARK  269  A    between atoms: _663  and  _664
REMARK  270  A    between atoms: _663  and  _666
REMARK  271  A    between atoms: _666  and  _667
REMARK  272  A    between atoms: _667  and  _668
REMARK  273  A    between atoms: _668  and  _669
REMARK  274  A    between atoms: _678  and  _680
REMARK  275  A    between atoms: _680  and  _681
REMARK  276  A    between atoms: _680  and  _683
REMARK  277  A    between atoms: _683  and  _684
REMARK  278  A    between atoms: _684  and  _685
REMARK  279  A    between atoms: _685  and  _686
REMARK  280  A    between atoms: _686  and  _687
REMARK  281  A    between atoms: _691  and  _693
REMARK  282  A    between atoms: _693  and  _694
REMARK  283  A    between atoms: _693  and  _696
REMARK  284  A    between atoms: _696  and  _697
REMARK  285  A    between atoms: _700  and  _702
REMARK  286  A    between atoms: _702  and  _703
REMARK  287  A    between atoms: _702  and  _705
REMARK  288  A    between atoms: _705  and  _706
REMARK                            x       y       z     vdW  Elec       q    Type
REMARK                         _______ _______ _______ _____ _____    ______ ____
ROOT
ATOM      1  CG  LYS A   1      16.686  29.559  40.356  0.00  0.00    -0.000 C 
ENDROOT
BRANCH   1   2
ATOM      2  CB  LYS A   1      17.217  30.687  39.500  0.00  0.00    +0.025 C 
BRANCH   2   3
ATOM      3  CA  LYS A   1      18.728  30.899  39.586  0.00  0.00    +0.133 C 
BRANCH   3   4
ATOM      4  N   LYS A   1      19.174  31.808  38.535  0.00  0.00    -0.239 NA
ATOM      5  H   LYS A   1      18.500  32.113  37.804  0.00  0.00    +0.142 HD
ENDBRANCH   3   4
BRANCH   3   6
ATOM      6  C   LYS A   1      19.469  29.559  39.562  0.00  0.00    +0.224 C 
ATOM      7  O   LYS A   1      19.985  29.107  40.584  0.00  0.00    -0.287 OA
ENDBRANCH   3   6
ENDBRANCH   2   3
ENDBRANCH   1   2
BRANCH   1   8
ATOM      8  CD  LYS A   1      16.918  29.807  41.833  0.00  0.00    -0.024 C 
BRANCH   8   9
ATOM      9  CE  LYS A   1      16.184  28.761  42.662  0.00  0.00    -0.086 C 
BRANCH   9  10
ATOM     10  NZ  LYS A   1      16.657  28.722  44.069  0.00  0.00    +0.380 N 
ATOM     11  HZ1 LYS A   1      16.127  27.995  44.591  0.00  0.00    -0.089 HD
ATOM     12  HZ2 LYS A   1      16.502  29.650  44.511  0.00  0.00    -0.089 HD
ATOM     13  HZ3 LYS A   1      17.671  28.493  44.086  0.00  0.00    -0.089 HD
ENDBRANCH   9  10
ENDBRANCH   8   9
ENDBRANCH   1   8
TORSDOF 7
REMARK  Name = ../refined-set-2016/3t6b/3t6b_pocket.pdb
REMARK  288 active torsions:
REMARK  status: ('A' for Active; 'I' for Inactive)
REMARK    1  A    between atoms: _1  and  _3
REMARK    2  A    between atoms: _3  and  _4
REMARK    3  A    between atoms: _6  and  _8
REMARK    4  A    between atoms: _8  and  _9
REMARK    5  A    between atoms: _8  and  _11
REMARK    6  A    between atoms: _11  and  _12
REMARK    7  A    between atoms: _14  and  _16
REMARK    8  A    between atoms: _16  and  _17
REMARK    9  A    between atoms: _16  and  _19
REMARK   10  A    between atoms: _19  and  _20
REMARK   11  A    between atoms: _23  and  _25
REMARK   12  A    between atoms: _25  and  _26
REMARK   13  A    between atoms: _25  and  _28
REMARK   14  A    between atoms: _28  and  _29
REMARK   15  A    between atoms: _31  and  _33
REMARK   16  A    between atoms: _33  and  _34
REMARK   17  A    between atoms: _33  and  _36
REMARK   18  A    between atoms: _36  and  _37
REMARK   19  A    between atoms: _43  and  _45
REMARK   20  A    between atoms: _45  and  _46
REMARK   21  A    between atoms: _45  and  _48
REMARK   22  A    between atoms: _48  and  _49
REMARK   23  A    between atoms: _54  and  _55
REMARK   24  A    between atoms: _57  and  _59
REMARK   25  A    between atoms: _59  and  _60
REMARK   26  A    between atoms: _59  and  _62
REMARK   27  A    between atoms: _62  and  _63
REMARK   28  A    between atoms: _66  and  _68
REMARK   29  A    between atoms: _68  and  _69
REMARK   30  A    between atoms: _68  and  _71
REMARK   31  A    between atoms: _71  and  _72
REMARK   32  A    between atoms: _72  and  _73
REMARK   33  A    between atoms: _76  and  _78
REMARK   34  A    between atoms: _78  and  _79
REMARK   35  A    between atoms: _78  and  _81
REMARK   36  A    between atoms: _81  and  _82
REMARK   37  A    between atoms: _84  and  _86
REMARK   38  A    between atoms: _86  and  _87
REMARK   39  A    between atoms: _86  and  _89
REMARK   40  A    between atoms: _89  and  _90
REMARK   41  A    between atoms: _95  and  _96
REMARK   42  A    between atoms: _98  and  _100
REMARK   43  A    between atoms: _100  and  _101
REMARK   44  A    between atoms: _100  and  _103
REMARK   45  A    between atoms: _103  and  _104
REMARK   46  A    between atoms: _104  and  _105
REMARK   47  A    between atoms: _108  and  _110
REMARK   48  A    between atoms: _110  and  _111
REMARK   49  A    between atoms: _110  and  _113
REMARK   50  A    between atoms: _113  and  _114
REMARK   51  A    between atoms: _120  and  _122
REMARK   52  A    between atoms: _122  and  _123
REMARK   53  A    between atoms: _122  and  _125
REMARK   54  A    between atoms: _125  and  _126
REMARK   55  A    between atoms: _128  and  _130
REMARK   56  A    between atoms: _130  and  _131
REMARK   57  A    between atoms: _133  and  _135
REMARK   58  A    between atoms: _135  and  _136
REMARK   59  A    between atoms: _135  and  _138
REMARK   60  A    between atoms: _138  and  _139
REMARK   61  A    between atoms: _143  and  _144
REMARK   62  A    between atoms: _149  and  _151
REMARK   63  A    between atoms: _151  and  _152
REMARK   64  A    between atoms: _155  and  _157
REMARK   65  A    between atoms: _157  and  _158
REMARK   66  A    between atoms: _160  and  _162
REMARK   67  A    between atoms: _162  and  _163
REMARK   68  A    between atoms: _162  and  _165
REMARK   69  A    between atoms: _165  and  _166
REMARK   70  A    between atoms: _169  and  _171
REMARK   71  A    between atoms: _171  and  _172
REMARK   72  A    between atoms: _171  and  _174
REMARK   73  A    between atoms: _174  and  _175
REMARK   74  A    between atoms: _180  and  _182
REMARK   75  A    between atoms: _182  and  _183
REMARK   76  A    between atoms: _182  and  _185
REMARK   77  A    between atoms: _185  and  _186
REMARK   78  A    between atoms: _190  and  _191
REMARK   79  A    between atoms: _196  and  _198
REMARK   80  A    between atoms: _198  and  _199
REMARK   81  A    between atoms: _198  and  _201
REMARK   82  A    between atoms: _201  and  _202
REMARK   83  A    between atoms: _207  and  _209
REMARK   84  A    between atoms: _209  and  _210
REMARK   85  A    between atoms: _209  and  _212
REMARK   86  A    between atoms: _212  and  _213
REMARK   87  A    between atoms: _218  and  _219
REMARK   88  A    between atoms: _221  and  _223
REMARK   89  A    between atoms: _223  and  _224
REMARK   90  A    between atoms: _223  and  _226
REMARK   91  A    between atoms: _226  and  _227
REMARK   92  A    between atoms: _230  and  _232
REMARK   93  A    between atoms: _232  and  _233
REMARK   94  A    between atoms: _232  and  _235
REMARK   95  A    between atoms: _235  and  _236
REMARK   96  A    between atoms: _236  and  _237
REMARK   97  A    between atoms: _237  and  _238
REMARK   98  A    between atoms: _247  and  _249
REMARK   99  A    between atoms: _249  and  _250
REMARK  100  A    between atoms: _249  and  _252
REMARK  101  A    between atoms: _252  and  _253
REMARK  102  A    between atoms: _253  and  _254
REMARK  103  A    between atoms: _254  and  _255
REMARK  104  A    between atoms: _255  and  _256
REMARK  105  A    between atoms: _260  and  _262
REMARK  106  A    between atoms: _262  and  _263
REMARK  107  A    between atoms: _262  and  _265
REMARK  108  A    between atoms: _265  and  _266
REMARK  109  A    between atoms: _271  and  _273
REMARK  110  A    between atoms: _273  and  _274
REMARK  111  A    between atoms: _273  and  _276
REMARK  112  A    between atoms: _279  and  _281
REMARK  113  A    between atoms: _281  and  _282
REMARK  114  A    between atoms: _281  and  _284
REMARK  115  A    between atoms: _284  and  _285
REMARK  116  A    between atoms: _288  and  _290
REMARK  117  A    between atoms: _290  and  _291
REMARK  118  A    between atoms: _290  and  _293
REMARK  119  A    between atoms: _296  and  _298
REMARK  120  A    between atoms: _298  and  _299
REMARK  121  A    between atoms: _298  and  _301
REMARK  122  A    between atoms: _301  and  _302
REMARK  123  A    between atoms: _305  and  _307
REMARK  124  A    between atoms: _307  and  _308
REMARK  125  A    between atoms: _311  and  _313
REMARK  126  A    between atoms: _313  and  _314
REMARK  127  A    between atoms: _313  and  _316
REMARK  128  A    between atoms: _319  and  _321
REMARK  129  A    between atoms: _321  and  _322
REMARK  130  A    between atoms: _325  and  _327
REMARK  131  A    between atoms: _327  and  _328
REMARK  132  A    between atoms: _331  and  _333
REMARK  133  A    between atoms: _333  and  _334
REMARK  134  A    between atoms: _333  and  _336
REMARK  135  A    between atoms: _336  and  _337
REMARK  136  A    between atoms: _342  and  _343
REMARK  137  A    between atoms: _345  and  _347
REMARK  138  A    between atoms: _347  and  _348
REMARK  139  A    between atoms: _347  and  _350
REMARK  140  A    between atoms: _350  and  _351
REMARK  141  A    between atoms: _351  and  _352
REMARK  142  A    between atoms: _352  and  _353
REMARK  143  A    between atoms: _353  and  _354
REMARK  144  A    between atoms: _358  and  _360
REMARK  145  A    between atoms: _360  and  _361
REMARK  146  A    between atoms: _360  and  _363
REMARK  147  A    between atoms: _363  and  _364
REMARK  148  A    between atoms: _366  and  _368
REMARK  149  A    between atoms: _368  and  _369
REMARK  150  A    between atoms: _368  and  _371
REMARK  151  A    between atoms: _371  and  _372
REMARK  152  A    between atoms: _378  and  _380
REMARK  153  A    between atoms: _380  and  _381
REMARK  154  A    between atoms: _380  and  _383
REMARK  155  A    between atoms: _383  and  _384
REMARK  156  A    between atoms: _387  and  _389
REMARK  157  A    between atoms: _389  and  _390
REMARK  158  A    between atoms: _389  and  _392
REMARK  159  A    between atoms: _395  and  _397
REMARK  160  A    between atoms: _397  and  _398
REMARK  161  A    between atoms: _397  and  _400
REMARK  162  A    between atoms: _400  and  _401
REMARK  163  A    between atoms: _401  and  _402
REMARK  164  A    between atoms: _407  and  _409
REMARK  165  A    between atoms: _409  and  _410
REMARK  166  A    between atoms: _409  and  _412
REMARK  167  A    between atoms: _415  and  _417
REMARK  168  A    between atoms: _417  and  _418
REMARK  169  A    between atoms: _420  and  _422
REMARK  170  A    between atoms: _422  and  _423
REMARK  171  A    between atoms: _422  and  _425
REMARK  172  A    between atoms: _425  and  _426
REMARK  173  A    between atoms: _429  and  _431
REMARK  174  A    between atoms: _431  and  _432
REMARK  175  A    between atoms: _431  and  _434
REMARK  176  A    between atoms: _434  and  _435
REMARK  177  A    between atoms: _440  and  _442
REMARK  178  A    between atoms: _442  and  _443
REMARK  179  A    between atoms: _446  and  _448
REMARK  180  A    between atoms: _448  and  _449
REMARK  181  A    between atoms: _448  and  _451
REMARK  182  A    between atoms: _451  and  _452
REMARK  183  A    between atoms: _457  and  _459
REMARK  184  A    between atoms: _459  and  _460
REMARK  185  A    between atoms: _459  and  _462
REMARK  186  A    between atoms: _462  and  _463
REMARK  187  A    between atoms: _473  and  _475
REMARK  188  A    between atoms: _475  and  _476
REMARK  189  A    between atoms: _475  and  _478
REMARK  190  A    between atoms: _478  and  _479
REMARK  191  A    between atoms: _482  and  _484
REMARK  192  A    between atoms: _484  and  _485
REMARK  193  A    between atoms: _488  and  _490
REMARK  194  A    between atoms: _490  and  _491
REMARK  195  A    between atoms: _490  and  _493
REMARK  196  A    between atoms: _493  and  _494
REMARK  197  A    between atoms: _496  and  _498
REMARK  198  A    between atoms: _498  and  _499
REMARK  199  A    between atoms: _498  and  _501
REMARK  200  A    between atoms: _501  and  _502
REMARK  201  A    between atoms: _502  and  _503
REMARK  202  A    between atoms: _506  and  _508
REMARK  203  A    between atoms: _508  and  _509
REMARK  204  A    between atoms: _508  and  _511
REMARK  205  A    between atoms: _511  and  _512
REMARK  206  A    between atoms: _512  and  _513
REMARK  207  A    between atoms: _516  and  _518
REMARK  208  A    between atoms: _518  and  _519
REMARK  209  A    between atoms: _518  and  _521
REMARK  210  A    between atoms: _521  and  _522
REMARK  211  A    between atoms: _522  and  _523
REMARK  212  A    between atoms: _523  and  _524
REMARK  213  A    between atoms: _533  and  _535
REMARK  214  A    between atoms: _535  and  _536
REMARK  215  A    between atoms: _539  and  _541
REMARK  216  A    between atoms: _541  and  _542
REMARK  217  A    between atoms: _541  and  _544
REMARK  218  A    between atoms: _544  and  _545
REMARK  219  A    between atoms: _545  and  _546
REMARK  220  A    between atoms: _549  and  _551
REMARK  221  A    between atoms: _551  and  _552
REMARK  222  A    between atoms: _554  and  _556
REMARK  223  A    between atoms: _556  and  _557
REMARK  224  A    between atoms: _556  and  _559
REMARK  225  A    between atoms: _559  and  _560
REMARK  226  A    between atoms: _565  and  _567
REMARK  227  A    between atoms: _567  and  _568
REMARK  228  A    between atoms: _567  and  _570
REMARK  229  A    between atoms: _570  and  _571
REMARK  230  A    between atoms: _576  and  _578
REMARK  231  A    between atoms: _578  and  _579
REMARK  232  A    between atoms: _578  and  _581
REMARK  233  A    between atoms: _581  and  _582
REMARK  234  A    between atoms: _582  and  _583
REMARK  235  A    between atoms: _585  and  _587
REMARK  236  A    between atoms: _587  and  _588
REMARK  237  A    between atoms: _587  and  _590
REMARK  238  A    between atoms: _590  and  _591
REMARK  239  A    between atoms: _591  and  _592
REMARK  240  A    between atoms: _597  and  _599
REMARK  241  A    between atoms: _599  and  _600
REMARK  242  A    between atoms: _603  and  _605
REMARK  243  A    between atoms: _605  and  _606
REMARK  244  A    between atoms: _605  and  _608
REMARK  245  A    between atoms: _608  and  _609
REMARK  246  A    between atoms: _614  and  _616
REMARK  247  A    between atoms: _616  and  _617
REMARK  248  A    between atoms: _616  and  _619
REMARK  249  A    between atoms: _619  and  _620
REMARK  250  A    between atoms: _620  and  _621
REMARK  251  A    between atoms: _623  and  _625
REMARK  252  A    between atoms: _625  and  _626
REMARK  253  A    between atoms: _625  and  _628
REMARK  254  A    between atoms: _628  and  _629
REMARK  255  A    between atoms: _629  and  _630
REMARK  256  A    between atoms: _630  and  _631
REMARK  257  A    between atoms: _640  and  _642
REMARK  258  A    between atoms: _642  and  _643
REMARK  259  A    between atoms: _642  and  _645
REMARK  260  A    between atoms: _645  and  _646
REMARK  261  A    between atoms: _646  and  _647
REMARK  262  A    between atoms: _647  and  _648
REMARK  263  A    between atoms: _648  and  _649
REMARK  264  A    between atoms: _653  and  _655
REMARK  265  A    between atoms: _655  and  _656
REMARK  266  A    between atoms: _655  and  _658
REMARK  267  A    between atoms: _658  and  _659
REMARK  268  A    between atoms: _661  and  _663
REMARK  269  A    between atoms: _663  and  _664
REMARK  270  A    between atoms: _663  and  _666
REMARK  271  A    between atoms: _666  and  _667
REMARK  272  A    between atoms: _667  and  _668
REMARK  273  A    between atoms: _668  and  _669
REMARK  274  A    between atoms: _678  and  _680
REMARK  275  A    between atoms: _680  and  _681
REMARK  276  A    between atoms: _680  and  _683
REMARK  277  A    between atoms: _683  and  _684
REMARK  278  A    between atoms: _684  and  _685
REMARK  279  A    between atoms: _685  and  _686
REMARK  280  A    between atoms: _686  and  _687
REMARK  281  A    between atoms: _691  and  _693
REMARK  282  A    between atoms: _693  and  _694
REMARK  283  A    between atoms: _693  and  _696
REMARK  284  A    between atoms: _696  and  _697
REMARK  285  A    between atoms: _700  and  _702
REMARK  286  A    between atoms: _702  and  _703
REMARK  287  A    between atoms: _702  and  _705
REMARK  288  A    between atoms: _705  and  _706
REMARK                            x       y       z     vdW  Elec       q    Type
REMARK                         _______ _______ _______ _____ _____    ______ ____
ROOT
ATOM      1  CA  GLN A   5      24.452  27.362  47.492  0.00  0.00    +0.149 C 
ENDROOT
BRANCH   1   2
ATOM      2  C   GLN A   5      24.601  25.908  47.939  0.00  0.00    +0.241 C 
ATOM      3  O   GLN A   5      24.957  25.647  49.090  0.00  0.00    -0.273 OA
ATOM      4  N   VAL A   6      24.345  24.971  47.023  0.00  0.00    -0.297 N 
ATOM      5  H   VAL A   6      24.000  25.267  46.088  0.00  0.00    +0.150 HD
BRANCH   4   6
ATOM      6  CA  VAL A   6      24.532  23.539  47.286  0.00  0.00    +0.149 C 
BRANCH   6   7
ATOM      7  C   VAL A   6      25.956  23.191  47.735  0.00  0.00    +0.241 C 
ATOM      8  O   VAL A   6      26.150  22.535  48.761  0.00  0.00    -0.273 OA
ATOM      9  N   GLY A   7      26.947  23.635  46.964  0.00  0.00    -0.295 N 
ATOM     10  H   GLY A   7      26.719  24.170  46.102  0.00  0.00    +0.150 HD
BRANCH   9  11
ATOM     11  CA  GLY A   7      28.339  23.390  47.298  0.00  0.00    +0.176 C 
BRANCH  11  12
ATOM     12  C   GLY A   7      28.769  23.932  48.653  0.00  0.00    +0.243 C 
ATOM     13  O   GLY A   7      29.327  23.203  49.473  0.00  0.00    -0.273 OA
ATOM     14  N   LEU A   8      28.511  25.215  48.889  0.00  0.00    -0.297 N 
ATOM     15  H   LEU A   8      28.011  25.769  48.165  0.00  0.00    +0.150 HD
BRANCH  14  16
ATOM     16  CA  LEU A   8      28.908  25.874  50.136  0.00  0.00    +0.149 C 
BRANCH  16  17
ATOM     17  C   LEU A   8      28.179  25.288  51.339  0.00  0.00    +0.241 C 
ATOM     18  O   LEU A   8      28.781  25.031  52.383  0.00  0.00    -0.273 OA
ATOM     19  N   HIS A   9      26.875  25.099  51.175  0.00  0.00    -0.297 N 
ATOM     20  H   HIS A   9      26.437  25.419  50.288  0.00  0.00    +0.150 HD
BRANCH  19  21
ATOM     21  CA  HIS A   9      26.027  24.464  52.178  0.00  0.00    +0.155 C 
BRANCH  21  22
ATOM     22  C   HIS A   9      26.632  23.156  52.712  0.00  0.00    +0.241 C 
ATOM     23  O   HIS A   9      26.932  23.038  53.903  0.00  0.00    -0.273 OA
ATOM     24  N   ALA A  10      26.795  22.165  51.840  0.00  0.00    -0.298 N 
ATOM     25  H   ALA A  10      26.547  22.308  50.840  0.00  0.00    +0.150 HD
BRANCH  24  26
ATOM     26  CA  ALA A  10      27.321  20.878  52.282  0.00  0.00    +0.137 C 
ATOM     27  CB  ALA A  10      27.257  19.869  51.148  0.00  0.00    +0.030 C 
BRANCH  26  28
ATOM     28  C   ALA A  10      28.749  20.969  52.836  0.00  0.00    +0.227 C 
ATOM     29  O   ALA A  10      28.995  20.653  54.001  0.00  0.00    -0.286 OA
ENDBRANCH  26  28
ENDBRANCH  24  26
ENDBRANCH  21  22
BRANCH  21  30
ATOM     30  CB  HIS A   9      24.641  24.202  51.581  0.00  0.00    +0.076 C 
BRANCH  30  31
ATOM     31  CG  HIS A   9      23.707  23.481  52.501  0.00  0.00    +0.082 A 
ATOM     32  ND1 HIS A   9      22.948  24.129  53.450  0.00  0.00    -0.227 NA
ATOM     33  CE1 HIS A   9      22.217  23.245  54.105  0.00  0.00    +0.199 A 
ATOM     34  NE2 HIS A   9      22.476  22.046  53.616  0.00  0.00    -0.221 NA
ATOM     35  CD2 HIS A   9      23.403  22.165  52.608  0.00  0.00    +0.115 A 
ENDBRANCH  30  31
ENDBRANCH  21  30
ENDBRANCH  19  21
ENDBRANCH  16  17
BRANCH  16  36
ATOM     36  CB  LEU A   8      28.634  27.375  50.059  0.00  0.00    +0.029 C 
BRANCH  36  37
ATOM     37  CG  LEU A   8      29.571  28.260  49.237  0.00  0.00    +0.002 C 
ATOM     38  CD2 LEU A   8      29.026  29.678  49.206  0.00  0.00    +0.000 C 
ATOM     39  CD1 LEU A   8      29.743  27.738  47.830  0.00  0.00    +0.000 C 
ENDBRANCH  36  37
ENDBRANCH  16  36
ENDBRANCH  14  16
ENDBRANCH  11  12
ENDBRANCH   9  11
ENDBRANCH   6   7
BRANCH   6  40
ATOM     40  CB  VAL A   6      24.175  22.682  46.050  0.00  0.00    +0.027 C 
ATOM     41  CG2 VAL A   6      24.629  21.235  46.249  0.00  0.00    +0.002 C 
ATOM     42  CG1 VAL A   6      22.684  22.743  45.772  0.00  0.00    +0.002 C 
ENDBRANCH   6  40
ENDBRANCH   4   6
ENDBRANCH   1   2
BRANCH   1  45
ATOM     43  C   VAL A   4      26.259  27.260  45.878  0.00  0.00    +0.241 C 
ATOM     44  O   VAL A   4      27.024  26.782  46.712  0.00  0.00    -0.273 OA
ATOM     45  N   GLN A   5      24.991  27.551  46.151  0.00  0.00    -0.297 N 
ATOM     46  H   GLN A   5      24.375  27.918  45.398  0.00  0.00    +0.150 HD
BRANCH  43  47
ATOM     47  CA  VAL A   4      26.742  27.550  44.461  0.00  0.00    +0.149 C 
BRANCH  47  50
ATOM     48  C   ASP A   3      25.837  25.627  43.303  0.00  0.00    +0.241 C 
ATOM     49  O   ASP A   3      26.470  24.851  44.014  0.00  0.00    -0.273 OA
ATOM     50  N   VAL A   4      25.882  26.942  43.461  0.00  0.00    -0.297 N 
ATOM     51  H   VAL A   4      25.291  27.549  42.858  0.00  0.00    +0.150 HD
BRANCH  48  52
ATOM     52  CA  ASP A   3      24.946  25.116  42.178  0.00  0.00    +0.160 C 
BRANCH  52  55
ATOM     53  C   PHE A   2      22.968  26.112  43.182  0.00  0.00    +0.241 C 
ATOM     54  O   PHE A   2      23.239  25.624  44.281  0.00  0.00    -0.273 OA
ATOM     55  N   ASP A   3      23.725  25.916  42.105  0.00  0.00    -0.297 N 
ATOM     56  H   ASP A   3      23.443  26.339  41.197  0.00  0.00    +0.150 HD
BRANCH  53  57
ATOM     57  CA  PHE A   2      21.716  26.977  43.002  0.00  0.00    +0.153 C 
BRANCH  57  60
ATOM     58  C   SER A   1      22.694  29.207  42.853  0.00  0.00    +0.241 C 
ATOM     59  O   SER A   1      23.140  29.148  44.000  0.00  0.00    -0.274 OA
ATOM     60  N   PHE A   2      22.001  28.220  42.293  0.00  0.00    -0.297 N 
ATOM     61  H   PHE A   2      21.652  28.338  41.321  0.00  0.00    +0.150 HD
BRANCH  58  62
ATOM     62  CA  SER A   1      22.926  30.441  41.985  0.00  0.00    +0.174 C 
BRANCH  62  63
ATOM     63  N   SER A   1      22.981  30.075  40.580  0.00  0.00    -0.236 NA
ATOM     64  H   SER A   1      22.284  30.475  39.920  0.00  0.00    +0.142 HD
ENDBRANCH  62  63
BRANCH  62  65
ATOM     65  CB  SER A   1      21.828  31.474  42.213  0.00  0.00    +0.163 C 
BRANCH  65  66
ATOM     66  OG  SER A   1      21.364  31.427  43.546  0.00  0.00    -0.380 OA
ATOM     67  H   SER A   1      21.000  30.526  43.736  0.00  0.00    +0.211 HD
ENDBRANCH  65  66
ENDBRANCH  62  65
ENDBRANCH  58  62
ENDBRANCH  57  60
BRANCH  57  68
ATOM     68  CB  PHE A   2      20.634  26.177  42.273  0.00  0.00    +0.055 C 
BRANCH  68  69
ATOM     69  CG  PHE A   2      19.636  25.532  43.193  0.00  0.00    -0.020 A 
ATOM     70  CD2 PHE A   2      20.039  24.591  44.125  0.00  0.00    -0.004 A 
ATOM     71  CE2 PHE A   2      19.128  24.004  44.977  0.00  0.00    -0.000 A 
ATOM     72  CZ  PHE A   2      17.796  24.358  44.908  0.00  0.00    -0.000 A 
ATOM     73  CE1 PHE A   2      17.380  25.298  43.983  0.00  0.00    -0.000 A 
ATOM     74  CD1 PHE A   2      18.298  25.881  43.137  0.00  0.00    -0.004 A 
ENDBRANCH  68  69
ENDBRANCH  57  68
ENDBRANCH  53  57
ENDBRANCH  52  55
BRANCH  52  75
ATOM     75  CB  ASP A   3      25.723  25.156  40.857  0.00  0.00    +0.143 C 
BRANCH  75  76
ATOM     76  CG  ASP A   3      24.902  24.676  39.669  0.00  0.00    +0.367 C 
ATOM     77  OD2 ASP A   3      24.005  23.823  39.857  0.00  0.00    -0.246 OA
ATOM     78  OD1 ASP A   3      25.162  25.150  38.540  0.00  0.00    -0.246 OA
ENDBRANCH  75  76
ENDBRANCH  52  75
ENDBRANCH  48  52
ENDBRANCH  47  50
BRANCH  47  79
ATOM     79  CB  VAL A   4      26.830  29.068  44.271  0.00  0.00    +0.027 C 
ATOM     80  CG2 VAL A   4      27.833  29.649  45.251  0.00  0.00    +0.002 C 
ATOM     81  CG1 VAL A   4      27.201  29.406  42.825  0.00  0.00    +0.002 C 
ENDBRANCH  47  79
ENDBRANCH  43  47
ENDBRANCH   1  45
BRANCH   1  82
ATOM     82  CB  GLN A   5      22.990  27.820  47.570  0.00  0.00    +0.039 C 
BRANCH  82  83
ATOM     83  CG  GLN A   5      22.422  27.891  48.993  0.00  0.00    +0.087 C 
BRANCH  83  84
ATOM     84  CD  GLN A   5      23.233  28.794  49.920  0.00  0.00    +0.219 C 
ATOM     85  NE2 GLN A   5      23.453  28.335  51.147  0.00  0.00    -0.329 N 
ATOM     86 HE21 GLN A   5      24.000  28.903  51.824  0.00  0.00    +0.145 HD
ATOM     87 HE22 GLN A   5      23.078  27.407  51.430  0.00  0.00    +0.145 HD
ATOM     88  OE1 GLN A   5      23.656  29.887  49.536  0.00  0.00    -0.275 OA
ENDBRANCH  83  84
ENDBRANCH  82  83
ENDBRANCH   1  82
TORSDOF 35
REMARK  Name = ../refined-set-2016/3t6b/3t6b_pocket.pdb
REMARK  288 active torsions:
REMARK  status: ('A' for Active; 'I' for Inactive)
REMARK    1  A    between atoms: _1  and  _3
REMARK    2  A    between atoms: _3  and  _4
REMARK    3  A    between atoms: _6  and  _8
REMARK    4  A    between atoms: _8  and  _9
REMARK    5  A    between atoms: _8  and  _11
REMARK    6  A    between atoms: _11  and  _12
REMARK    7  A    between atoms: _14  and  _16
REMARK    8  A    between atoms: _16  and  _17
REMARK    9  A    between atoms: _16  and  _19
REMARK   10  A    between atoms: _19  and  _20
REMARK   11  A    between atoms: _23  and  _25
REMARK   12  A    between atoms: _25  and  _26
REMARK   13  A    between atoms: _25  and  _28
REMARK   14  A    between atoms: _28  and  _29
REMARK   15  A    between atoms: _31  and  _33
REMARK   16  A    between atoms: _33  and  _34
REMARK   17  A    between atoms: _33  and  _36
REMARK   18  A    between atoms: _36  and  _37
REMARK   19  A    between atoms: _43  and  _45
REMARK   20  A    between atoms: _45  and  _46
REMARK   21  A    between atoms: _45  and  _48
REMARK   22  A    between atoms: _48  and  _49
REMARK   23  A    between atoms: _54  and  _55
REMARK   24  A    between atoms: _57  and  _59
REMARK   25  A    between atoms: _59  and  _60
REMARK   26  A    between atoms: _59  and  _62
REMARK   27  A    between atoms: _62  and  _63
REMARK   28  A    between atoms: _66  and  _68
REMARK   29  A    between atoms: _68  and  _69
REMARK   30  A    between atoms: _68  and  _71
REMARK   31  A    between atoms: _71  and  _72
REMARK   32  A    between atoms: _72  and  _73
REMARK   33  A    between atoms: _76  and  _78
REMARK   34  A    between atoms: _78  and  _79
REMARK   35  A    between atoms: _78  and  _81
REMARK   36  A    between atoms: _81  and  _82
REMARK   37  A    between atoms: _84  and  _86
REMARK   38  A    between atoms: _86  and  _87
REMARK   39  A    between atoms: _86  and  _89
REMARK   40  A    between atoms: _89  and  _90
REMARK   41  A    between atoms: _95  and  _96
REMARK   42  A    between atoms: _98  and  _100
REMARK   43  A    between atoms: _100  and  _101
REMARK   44  A    between atoms: _100  and  _103
REMARK   45  A    between atoms: _103  and  _104
REMARK   46  A    between atoms: _104  and  _105
REMARK   47  A    between atoms: _108  and  _110
REMARK   48  A    between atoms: _110  and  _111
REMARK   49  A    between atoms: _110  and  _113
REMARK   50  A    between atoms: _113  and  _114
REMARK   51  A    between atoms: _120  and  _122
REMARK   52  A    between atoms: _122  and  _123
REMARK   53  A    between atoms: _122  and  _125
REMARK   54  A    between atoms: _125  and  _126
REMARK   55  A    between atoms: _128  and  _130
REMARK   56  A    between atoms: _130  and  _131
REMARK   57  A    between atoms: _133  and  _135
REMARK   58  A    between atoms: _135  and  _136
REMARK   59  A    between atoms: _135  and  _138
REMARK   60  A    between atoms: _138  and  _139
REMARK   61  A    between atoms: _143  and  _144
REMARK   62  A    between atoms: _149  and  _151
REMARK   63  A    between atoms: _151  and  _152
REMARK   64  A    between atoms: _155  and  _157
REMARK   65  A    between atoms: _157  and  _158
REMARK   66  A    between atoms: _160  and  _162
REMARK   67  A    between atoms: _162  and  _163
REMARK   68  A    between atoms: _162  and  _165
REMARK   69  A    between atoms: _165  and  _166
REMARK   70  A    between atoms: _169  and  _171
REMARK   71  A    between atoms: _171  and  _172
REMARK   72  A    between atoms: _171  and  _174
REMARK   73  A    between atoms: _174  and  _175
REMARK   74  A    between atoms: _180  and  _182
REMARK   75  A    between atoms: _182  and  _183
REMARK   76  A    between atoms: _182  and  _185
REMARK   77  A    between atoms: _185  and  _186
REMARK   78  A    between atoms: _190  and  _191
REMARK   79  A    between atoms: _196  and  _198
REMARK   80  A    between atoms: _198  and  _199
REMARK   81  A    between atoms: _198  and  _201
REMARK   82  A    between atoms: _201  and  _202
REMARK   83  A    between atoms: _207  and  _209
REMARK   84  A    between atoms: _209  and  _210
REMARK   85  A    between atoms: _209  and  _212
REMARK   86  A    between atoms: _212  and  _213
REMARK   87  A    between atoms: _218  and  _219
REMARK   88  A    between atoms: _221  and  _223
REMARK   89  A    between atoms: _223  and  _224
REMARK   90  A    between atoms: _223  and  _226
REMARK   91  A    between atoms: _226  and  _227
REMARK   92  A    between atoms: _230  and  _232
REMARK   93  A    between atoms: _232  and  _233
REMARK   94  A    between atoms: _232  and  _235
REMARK   95  A    between atoms: _235  and  _236
REMARK   96  A    between atoms: _236  and  _237
REMARK   97  A    between atoms: _237  and  _238
REMARK   98  A    between atoms: _247  and  _249
REMARK   99  A    between atoms: _249  and  _250
REMARK  100  A    between atoms: _249  and  _252
REMARK  101  A    between atoms: _252  and  _253
REMARK  102  A    between atoms: _253  and  _254
REMARK  103  A    between atoms: _254  and  _255
REMARK  104  A    between atoms: _255  and  _256
REMARK  105  A    between atoms: _260  and  _262
REMARK  106  A    between atoms: _262  and  _263
REMARK  107  A    between atoms: _262  and  _265
REMARK  108  A    between atoms: _265  and  _266
REMARK  109  A    between atoms: _271  and  _273
REMARK  110  A    between atoms: _273  and  _274
REMARK  111  A    between atoms: _273  and  _276
REMARK  112  A    between atoms: _279  and  _281
REMARK  113  A    between atoms: _281  and  _282
REMARK  114  A    between atoms: _281  and  _284
REMARK  115  A    between atoms: _284  and  _285
REMARK  116  A    between atoms: _288  and  _290
REMARK  117  A    between atoms: _290  and  _291
REMARK  118  A    between atoms: _290  and  _293
REMARK  119  A    between atoms: _296  and  _298
REMARK  120  A    between atoms: _298  and  _299
REMARK  121  A    between atoms: _298  and  _301
REMARK  122  A    between atoms: _301  and  _302
REMARK  123  A    between atoms: _305  and  _307
REMARK  124  A    between atoms: _307  and  _308
REMARK  125  A    between atoms: _311  and  _313
REMARK  126  A    between atoms: _313  and  _314
REMARK  127  A    between atoms: _313  and  _316
REMARK  128  A    between atoms: _319  and  _321
REMARK  129  A    between atoms: _321  and  _322
REMARK  130  A    between atoms: _325  and  _327
REMARK  131  A    between atoms: _327  and  _328
REMARK  132  A    between atoms: _331  and  _333
REMARK  133  A    between atoms: _333  and  _334
REMARK  134  A    between atoms: _333  and  _336
REMARK  135  A    between atoms: _336  and  _337
REMARK  136  A    between atoms: _342  and  _343
REMARK  137  A    between atoms: _345  and  _347
REMARK  138  A    between atoms: _347  and  _348
REMARK  139  A    between atoms: _347  and  _350
REMARK  140  A    between atoms: _350  and  _351
REMARK  141  A    between atoms: _351  and  _352
REMARK  142  A    between atoms: _352  and  _353
REMARK  143  A    between atoms: _353  and  _354
REMARK  144  A    between atoms: _358  and  _360
REMARK  145  A    between atoms: _360  and  _361
REMARK  146  A    between atoms: _360  and  _363
REMARK  147  A    between atoms: _363  and  _364
REMARK  148  A    between atoms: _366  and  _368
REMARK  149  A    between atoms: _368  and  _369
REMARK  150  A    between atoms: _368  and  _371
REMARK  151  A    between atoms: _371  and  _372
REMARK  152  A    between atoms: _378  and  _380
REMARK  153  A    between atoms: _380  and  _381
REMARK  154  A    between atoms: _380  and  _383
REMARK  155  A    between atoms: _383  and  _384
REMARK  156  A    between atoms: _387  and  _389
REMARK  157  A    between atoms: _389  and  _390
REMARK  158  A    between atoms: _389  and  _392
REMARK  159  A    between atoms: _395  and  _397
REMARK  160  A    between atoms: _397  and  _398
REMARK  161  A    between atoms: _397  and  _400
REMARK  162  A    between atoms: _400  and  _401
REMARK  163  A    between atoms: _401  and  _402
REMARK  164  A    between atoms: _407  and  _409
REMARK  165  A    between atoms: _409  and  _410
REMARK  166  A    between atoms: _409  and  _412
REMARK  167  A    between atoms: _415  and  _417
REMARK  168  A    between atoms: _417  and  _418
REMARK  169  A    between atoms: _420  and  _422
REMARK  170  A    between atoms: _422  and  _423
REMARK  171  A    between atoms: _422  and  _425
REMARK  172  A    between atoms: _425  and  _426
REMARK  173  A    between atoms: _429  and  _431
REMARK  174  A    between atoms: _431  and  _432
REMARK  175  A    between atoms: _431  and  _434
REMARK  176  A    between atoms: _434  and  _435
REMARK  177  A    between atoms: _440  and  _442
REMARK  178  A    between atoms: _442  and  _443
REMARK  179  A    between atoms: _446  and  _448
REMARK  180  A    between atoms: _448  and  _449
REMARK  181  A    between atoms: _448  and  _451
REMARK  182  A    between atoms: _451  and  _452
REMARK  183  A    between atoms: _457  and  _459
REMARK  184  A    between atoms: _459  and  _460
REMARK  185  A    between atoms: _459  and  _462
REMARK  186  A    between atoms: _462  and  _463
REMARK  187  A    between atoms: _473  and  _475
REMARK  188  A    between atoms: _475  and  _476
REMARK  189  A    between atoms: _475  and  _478
REMARK  190  A    between atoms: _478  and  _479
REMARK  191  A    between atoms: _482  and  _484
REMARK  192  A    between atoms: _484  and  _485
REMARK  193  A    between atoms: _488  and  _490
REMARK  194  A    between atoms: _490  and  _491
REMARK  195  A    between atoms: _490  and  _493
REMARK  196  A    between atoms: _493  and  _494
REMARK  197  A    between atoms: _496  and  _498
REMARK  198  A    between atoms: _498  and  _499
REMARK  199  A    between atoms: _498  and  _501
REMARK  200  A    between atoms: _501  and  _502
REMARK  201  A    between atoms: _502  and  _503
REMARK  202  A    between atoms: _506  and  _508
REMARK  203  A    between atoms: _508  and  _509
REMARK  204  A    between atoms: _508  and  _511
REMARK  205  A    between atoms: _511  and  _512
REMARK  206  A    between atoms: _512  and  _513
REMARK  207  A    between atoms: _516  and  _518
REMARK  208  A    between atoms: _518  and  _519
REMARK  209  A    between atoms: _518  and  _521
REMARK  210  A    between atoms: _521  and  _522
REMARK  211  A    between atoms: _522  and  _523
REMARK  212  A    between atoms: _523  and  _524
REMARK  213  A    between atoms: _533  and  _535
REMARK  214  A    between atoms: _535  and  _536
REMARK  215  A    between atoms: _539  and  _541
REMARK  216  A    between atoms: _541  and  _542
REMARK  217  A    between atoms: _541  and  _544
REMARK  218  A    between atoms: _544  and  _545
REMARK  219  A    between atoms: _545  and  _546
REMARK  220  A    between atoms: _549  and  _551
REMARK  221  A    between atoms: _551  and  _552
REMARK  222  A    between atoms: _554  and  _556
REMARK  223  A    between atoms: _556  and  _557
REMARK  224  A    between atoms: _556  and  _559
REMARK  225  A    between atoms: _559  and  _560
REMARK  226  A    between atoms: _565  and  _567
REMARK  227  A    between atoms: _567  and  _568
REMARK  228  A    between atoms: _567  and  _570
REMARK  229  A    between atoms: _570  and  _571
REMARK  230  A    between atoms: _576  and  _578
REMARK  231  A    between atoms: _578  and  _579
REMARK  232  A    between atoms: _578  and  _581
REMARK  233  A    between atoms: _581  and  _582
REMARK  234  A    between atoms: _582  and  _583
REMARK  235  A    between atoms: _585  and  _587
REMARK  236  A    between atoms: _587  and  _588
REMARK  237  A    between atoms: _587  and  _590
REMARK  238  A    between atoms: _590  and  _591
REMARK  239  A    between atoms: _591  and  _592
REMARK  240  A    between atoms: _597  and  _599
REMARK  241  A    between atoms: _599  and  _600
REMARK  242  A    between atoms: _603  and  _605
REMARK  243  A    between atoms: _605  and  _606
REMARK  244  A    between atoms: _605  and  _608
REMARK  245  A    between atoms: _608  and  _609
REMARK  246  A    between atoms: _614  and  _616
REMARK  247  A    between atoms: _616  and  _617
REMARK  248  A    between atoms: _616  and  _619
REMARK  249  A    between atoms: _619  and  _620
REMARK  250  A    between atoms: _620  and  _621
REMARK  251  A    between atoms: _623  and  _625
REMARK  252  A    between atoms: _625  and  _626
REMARK  253  A    between atoms: _625  and  _628
REMARK  254  A    between atoms: _628  and  _629
REMARK  255  A    between atoms: _629  and  _630
REMARK  256  A    between atoms: _630  and  _631
REMARK  257  A    between atoms: _640  and  _642
REMARK  258  A    between atoms: _642  and  _643
REMARK  259  A    between atoms: _642  and  _645
REMARK  260  A    between atoms: _645  and  _646
REMARK  261  A    between atoms: _646  and  _647
REMARK  262  A    between atoms: _647  and  _648
REMARK  263  A    between atoms: _648  and  _649
REMARK  264  A    between atoms: _653  and  _655
REMARK  265  A    between atoms: _655  and  _656
REMARK  266  A    between atoms: _655  and  _658
REMARK  267  A    between atoms: _658  and  _659
REMARK  268  A    between atoms: _661  and  _663
REMARK  269  A    between atoms: _663  and  _664
REMARK  270  A    between atoms: _663  and  _666
REMARK  271  A    between atoms: _666  and  _667
REMARK  272  A    between atoms: _667  and  _668
REMARK  273  A    between atoms: _668  and  _669
REMARK  274  A    between atoms: _678  and  _680
REMARK  275  A    between atoms: _680  and  _681
REMARK  276  A    between atoms: _680  and  _683
REMARK  277  A    between atoms: _683  and  _684
REMARK  278  A    between atoms: _684  and  _685
REMARK  279  A    between atoms: _685  and  _686
REMARK  280  A    between atoms: _686  and  _687
REMARK  281  A    between atoms: _691  and  _693
REMARK  282  A    between atoms: _693  and  _694
REMARK  283  A    between atoms: _693  and  _696
REMARK  284  A    between atoms: _696  and  _697
REMARK  285  A    between atoms: _700  and  _702
REMARK  286  A    between atoms: _702  and  _703
REMARK  287  A    between atoms: _702  and  _705
REMARK  288  A    between atoms: _705  and  _706
REMARK                            x       y       z     vdW  Elec       q    Type
REMARK                         _______ _______ _______ _____ _____    ______ ____
ROOT
ATOM      1  CB  HIS A   1      26.844  20.166  56.933  0.00  0.00    +0.072 C 
ENDROOT
BRANCH   1   2
ATOM      2  CG  HIS A   1      25.394  20.534  56.866  0.00  0.00    +0.082 A 
ATOM      3  ND1 HIS A   1      24.622  20.725  57.994  0.00  0.00    -0.227 NA
ATOM      4  CE1 HIS A   1      23.394  21.053  57.635  0.00  0.00    +0.199 A 
ATOM      5  NE2 HIS A   1      23.339  21.078  56.316  0.00  0.00    -0.221 NA
ATOM      6  CD2 HIS A   1      24.577  20.761  55.810  0.00  0.00    +0.115 A 
ENDBRANCH   1   2
BRANCH   1   7
ATOM      7  CA  HIS A   1      27.723  21.254  57.562  0.00  0.00    +0.139 C 
BRANCH   7   8
ATOM      8  N   HIS A   1      27.843  22.402  56.674  0.00  0.00    -0.239 NA
ATOM      9  H   HIS A   1      27.762  22.264  55.646  0.00  0.00    +0.142 HD
ENDBRANCH   7   8
BRANCH   7  10
ATOM     10  C   HIS A   1      29.083  20.704  57.972  0.00  0.00    +0.224 C 
ATOM     11  O   HIS A   1      29.224  20.111  59.042  0.00  0.00    -0.287 OA
ENDBRANCH   7  10
ENDBRANCH   1   7
TORSDOF 4
REMARK  Name = ../refined-set-2016/3t6b/3t6b_pocket.pdb
REMARK  288 active torsions:
REMARK  status: ('A' for Active; 'I' for Inactive)
REMARK    1  A    between atoms: _1  and  _3
REMARK    2  A    between atoms: _3  and  _4
REMARK    3  A    between atoms: _6  and  _8
REMARK    4  A    between atoms: _8  and  _9
REMARK    5  A    between atoms: _8  and  _11
REMARK    6  A    between atoms: _11  and  _12
REMARK    7  A    between atoms: _14  and  _16
REMARK    8  A    between atoms: _16  and  _17
REMARK    9  A    between atoms: _16  and  _19
REMARK   10  A    between atoms: _19  and  _20
REMARK   11  A    between atoms: _23  and  _25
REMARK   12  A    between atoms: _25  and  _26
REMARK   13  A    between atoms: _25  and  _28
REMARK   14  A    between atoms: _28  and  _29
REMARK   15  A    between atoms: _31  and  _33
REMARK   16  A    between atoms: _33  and  _34
REMARK   17  A    between atoms: _33  and  _36
REMARK   18  A    between atoms: _36  and  _37
REMARK   19  A    between atoms: _43  and  _45
REMARK   20  A    between atoms: _45  and  _46
REMARK   21  A    between atoms: _45  and  _48
REMARK   22  A    between atoms: _48  and  _49
REMARK   23  A    between atoms: _54  and  _55
REMARK   24  A    between atoms: _57  and  _59
REMARK   25  A    between atoms: _59  and  _60
REMARK   26  A    between atoms: _59  and  _62
REMARK   27  A    between atoms: _62  and  _63
REMARK   28  A    between atoms: _66  and  _68
REMARK   29  A    between atoms: _68  and  _69
REMARK   30  A    between atoms: _68  and  _71
REMARK   31  A    between atoms: _71  and  _72
REMARK   32  A    between atoms: _72  and  _73
REMARK   33  A    between atoms: _76  and  _78
REMARK   34  A    between atoms: _78  and  _79
REMARK   35  A    between atoms: _78  and  _81
REMARK   36  A    between atoms: _81  and  _82
REMARK   37  A    between atoms: _84  and  _86
REMARK   38  A    between atoms: _86  and  _87
REMARK   39  A    between atoms: _86  and  _89
REMARK   40  A    between atoms: _89  and  _90
REMARK   41  A    between atoms: _95  and  _96
REMARK   42  A    between atoms: _98  and  _100
REMARK   43  A    between atoms: _100  and  _101
REMARK   44  A    between atoms: _100  and  _103
REMARK   45  A    between atoms: _103  and  _104
REMARK   46  A    between atoms: _104  and  _105
REMARK   47  A    between atoms: _108  and  _110
REMARK   48  A    between atoms: _110  and  _111
REMARK   49  A    between atoms: _110  and  _113
REMARK   50  A    between atoms: _113  and  _114
REMARK   51  A    between atoms: _120  and  _122
REMARK   52  A    between atoms: _122  and  _123
REMARK   53  A    between atoms: _122  and  _125
REMARK   54  A    between atoms: _125  and  _126
REMARK   55  A    between atoms: _128  and  _130
REMARK   56  A    between atoms: _130  and  _131
REMARK   57  A    between atoms: _133  and  _135
REMARK   58  A    between atoms: _135  and  _136
REMARK   59  A    between atoms: _135  and  _138
REMARK   60  A    between atoms: _138  and  _139
REMARK   61  A    between atoms: _143  and  _144
REMARK   62  A    between atoms: _149  and  _151
REMARK   63  A    between atoms: _151  and  _152
REMARK   64  A    between atoms: _155  and  _157
REMARK   65  A    between atoms: _157  and  _158
REMARK   66  A    between atoms: _160  and  _162
REMARK   67  A    between atoms: _162  and  _163
REMARK   68  A    between atoms: _162  and  _165
REMARK   69  A    between atoms: _165  and  _166
REMARK   70  A    between atoms: _169  and  _171
REMARK   71  A    between atoms: _171  and  _172
REMARK   72  A    between atoms: _171  and  _174
REMARK   73  A    between atoms: _174  and  _175
REMARK   74  A    between atoms: _180  and  _182
REMARK   75  A    between atoms: _182  and  _183
REMARK   76  A    between atoms: _182  and  _185
REMARK   77  A    between atoms: _185  and  _186
REMARK   78  A    between atoms: _190  and  _191
REMARK   79  A    between atoms: _196  and  _198
REMARK   80  A    between atoms: _198  and  _199
REMARK   81  A    between atoms: _198  and  _201
REMARK   82  A    between atoms: _201  and  _202
REMARK   83  A    between atoms: _207  and  _209
REMARK   84  A    between atoms: _209  and  _210
REMARK   85  A    between atoms: _209  and  _212
REMARK   86  A    between atoms: _212  and  _213
REMARK   87  A    between atoms: _218  and  _219
REMARK   88  A    between atoms: _221  and  _223
REMARK   89  A    between atoms: _223  and  _224
REMARK   90  A    between atoms: _223  and  _226
REMARK   91  A    between atoms: _226  and  _227
REMARK   92  A    between atoms: _230  and  _232
REMARK   93  A    between atoms: _232  and  _233
REMARK   94  A    between atoms: _232  and  _235
REMARK   95  A    between atoms: _235  and  _236
REMARK   96  A    between atoms: _236  and  _237
REMARK   97  A    between atoms: _237  and  _238
REMARK   98  A    between atoms: _247  and  _249
REMARK   99  A    between atoms: _249  and  _250
REMARK  100  A    between atoms: _249  and  _252
REMARK  101  A    between atoms: _252  and  _253
REMARK  102  A    between atoms: _253  and  _254
REMARK  103  A    between atoms: _254  and  _255
REMARK  104  A    between atoms: _255  and  _256
REMARK  105  A    between atoms: _260  and  _262
REMARK  106  A    between atoms: _262  and  _263
REMARK  107  A    between atoms: _262  and  _265
REMARK  108  A    between atoms: _265  and  _266
REMARK  109  A    between atoms: _271  and  _273
REMARK  110  A    between atoms: _273  and  _274
REMARK  111  A    between atoms: _273  and  _276
REMARK  112  A    between atoms: _279  and  _281
REMARK  113  A    between atoms: _281  and  _282
REMARK  114  A    between atoms: _281  and  _284
REMARK  115  A    between atoms: _284  and  _285
REMARK  116  A    between atoms: _288  and  _290
REMARK  117  A    between atoms: _290  and  _291
REMARK  118  A    between atoms: _290  and  _293
REMARK  119  A    between atoms: _296  and  _298
REMARK  120  A    between atoms: _298  and  _299
REMARK  121  A    between atoms: _298  and  _301
REMARK  122  A    between atoms: _301  and  _302
REMARK  123  A    between atoms: _305  and  _307
REMARK  124  A    between atoms: _307  and  _308
REMARK  125  A    between atoms: _311  and  _313
REMARK  126  A    between atoms: _313  and  _314
REMARK  127  A    between atoms: _313  and  _316
REMARK  128  A    between atoms: _319  and  _321
REMARK  129  A    between atoms: _321  and  _322
REMARK  130  A    between atoms: _325  and  _327
REMARK  131  A    between atoms: _327  and  _328
REMARK  132  A    between atoms: _331  and  _333
REMARK  133  A    between atoms: _333  and  _334
REMARK  134  A    between atoms: _333  and  _336
REMARK  135  A    between atoms: _336  and  _337
REMARK  136  A    between atoms: _342  and  _343
REMARK  137  A    between atoms: _345  and  _347
REMARK  138  A    between atoms: _347  and  _348
REMARK  139  A    between atoms: _347  and  _350
REMARK  140  A    between atoms: _350  and  _351
REMARK  141  A    between atoms: _351  and  _352
REMARK  142  A    between atoms: _352  and  _353
REMARK  143  A    between atoms: _353  and  _354
REMARK  144  A    between atoms: _358  and  _360
REMARK  145  A    between atoms: _360  and  _361
REMARK  146  A    between atoms: _360  and  _363
REMARK  147  A    between atoms: _363  and  _364
REMARK  148  A    between atoms: _366  and  _368
REMARK  149  A    between atoms: _368  and  _369
REMARK  150  A    between atoms: _368  and  _371
REMARK  151  A    between atoms: _371  and  _372
REMARK  152  A    between atoms: _378  and  _380
REMARK  153  A    between atoms: _380  and  _381
REMARK  154  A    between atoms: _380  and  _383
REMARK  155  A    between atoms: _383  and  _384
REMARK  156  A    between atoms: _387  and  _389
REMARK  157  A    between atoms: _389  and  _390
REMARK  158  A    between atoms: _389  and  _392
REMARK  159  A    between atoms: _395  and  _397
REMARK  160  A    between atoms: _397  and  _398
REMARK  161  A    between atoms: _397  and  _400
REMARK  162  A    between atoms: _400  and  _401
REMARK  163  A    between atoms: _401  and  _402
REMARK  164  A    between atoms: _407  and  _409
REMARK  165  A    between atoms: _409  and  _410
REMARK  166  A    between atoms: _409  and  _412
REMARK  167  A    between atoms: _415  and  _417
REMARK  168  A    between atoms: _417  and  _418
REMARK  169  A    between atoms: _420  and  _422
REMARK  170  A    between atoms: _422  and  _423
REMARK  171  A    between atoms: _422  and  _425
REMARK  172  A    between atoms: _425  and  _426
REMARK  173  A    between atoms: _429  and  _431
REMARK  174  A    between atoms: _431  and  _432
REMARK  175  A    between atoms: _431  and  _434
REMARK  176  A    between atoms: _434  and  _435
REMARK  177  A    between atoms: _440  and  _442
REMARK  178  A    between atoms: _442  and  _443
REMARK  179  A    between atoms: _446  and  _448
REMARK  180  A    between atoms: _448  and  _449
REMARK  181  A    between atoms: _448  and  _451
REMARK  182  A    between atoms: _451  and  _452
REMARK  183  A    between atoms: _457  and  _459
REMARK  184  A    between atoms: _459  and  _460
REMARK  185  A    between atoms: _459  and  _462
REMARK  186  A    between atoms: _462  and  _463
REMARK  187  A    between atoms: _473  and  _475
REMARK  188  A    between atoms: _475  and  _476
REMARK  189  A    between atoms: _475  and  _478
REMARK  190  A    between atoms: _478  and  _479
REMARK  191  A    between atoms: _482  and  _484
REMARK  192  A    between atoms: _484  and  _485
REMARK  193  A    between atoms: _488  and  _490
REMARK  194  A    between atoms: _490  and  _491
REMARK  195  A    between atoms: _490  and  _493
REMARK  196  A    between atoms: _493  and  _494
REMARK  197  A    between atoms: _496  and  _498
REMARK  198  A    between atoms: _498  and  _499
REMARK  199  A    between atoms: _498  and  _501
REMARK  200  A    between atoms: _501  and  _502
REMARK  201  A    between atoms: _502  and  _503
REMARK  202  A    between atoms: _506  and  _508
REMARK  203  A    between atoms: _508  and  _509
REMARK  204  A    between atoms: _508  and  _511
REMARK  205  A    between atoms: _511  and  _512
REMARK  206  A    between atoms: _512  and  _513
REMARK  207  A    between atoms: _516  and  _518
REMARK  208  A    between atoms: _518  and  _519
REMARK  209  A    between atoms: _518  and  _521
REMARK  210  A    between atoms: _521  and  _522
REMARK  211  A    between atoms: _522  and  _523
REMARK  212  A    between atoms: _523  and  _524
REMARK  213  A    between atoms: _533  and  _535
REMARK  214  A    between atoms: _535  and  _536
REMARK  215  A    between atoms: _539  and  _541
REMARK  216  A    between atoms: _541  and  _542
REMARK  217  A    between atoms: _541  and  _544
REMARK  218  A    between atoms: _544  and  _545
REMARK  219  A    between atoms: _545  and  _546
REMARK  220  A    between atoms: _549  and  _551
REMARK  221  A    between atoms: _551  and  _552
REMARK  222  A    between atoms: _554  and  _556
REMARK  223  A    between atoms: _556  and  _557
REMARK  224  A    between atoms: _556  and  _559
REMARK  225  A    between atoms: _559  and  _560
REMARK  226  A    between atoms: _565  and  _567
REMARK  227  A    between atoms: _567  and  _568
REMARK  228  A    between atoms: _567  and  _570
REMARK  229  A    between atoms: _570  and  _571
REMARK  230  A    between atoms: _576  and  _578
REMARK  231  A    between atoms: _578  and  _579
REMARK  232  A    between atoms: _578  and  _581
REMARK  233  A    between atoms: _581  and  _582
REMARK  234  A    between atoms: _582  and  _583
REMARK  235  A    between atoms: _585  and  _587
REMARK  236  A    between atoms: _587  and  _588
REMARK  237  A    between atoms: _587  and  _590
REMARK  238  A    between atoms: _590  and  _591
REMARK  239  A    between atoms: _591  and  _592
REMARK  240  A    between atoms: _597  and  _599
REMARK  241  A    between atoms: _599  and  _600
REMARK  242  A    between atoms: _603  and  _605
REMARK  243  A    between atoms: _605  and  _606
REMARK  244  A    between atoms: _605  and  _608
REMARK  245  A    between atoms: _608  and  _609
REMARK  246  A    between atoms: _614  and  _616
REMARK  247  A    between atoms: _616  and  _617
REMARK  248  A    between atoms: _616  and  _619
REMARK  249  A    between atoms: _619  and  _620
REMARK  250  A    between atoms: _620  and  _621
REMARK  251  A    between atoms: _623  and  _625
REMARK  252  A    between atoms: _625  and  _626
REMARK  253  A    between atoms: _625  and  _628
REMARK  254  A    between atoms: _628  and  _629
REMARK  255  A    between atoms: _629  and  _630
REMARK  256  A    between atoms: _630  and  _631
REMARK  257  A    between atoms: _640  and  _642
REMARK  258  A    between atoms: _642  and  _643
REMARK  259  A    between atoms: _642  and  _645
REMARK  260  A    between atoms: _645  and  _646
REMARK  261  A    between atoms: _646  and  _647
REMARK  262  A    between atoms: _647  and  _648
REMARK  263  A    between atoms: _648  and  _649
REMARK  264  A    between atoms: _653  and  _655
REMARK  265  A    between atoms: _655  and  _656
REMARK  266  A    between atoms: _655  and  _658
REMARK  267  A    between atoms: _658  and  _659
REMARK  268  A    between atoms: _661  and  _663
REMARK  269  A    between atoms: _663  and  _664
REMARK  270  A    between atoms: _663  and  _666
REMARK  271  A    between atoms: _666  and  _667
REMARK  272  A    between atoms: _667  and  _668
REMARK  273  A    between atoms: _668  and  _669
REMARK  274  A    between atoms: _678  and  _680
REMARK  275  A    between atoms: _680  and  _681
REMARK  276  A    between atoms: _680  and  _683
REMARK  277  A    between atoms: _683  and  _684
REMARK  278  A    between atoms: _684  and  _685
REMARK  279  A    between atoms: _685  and  _686
REMARK  280  A    between atoms: _686  and  _687
REMARK  281  A    between atoms: _691  and  _693
REMARK  282  A    between atoms: _693  and  _694
REMARK  283  A    between atoms: _693  and  _696
REMARK  284  A    between atoms: _696  and  _697
REMARK  285  A    between atoms: _700  and  _702
REMARK  286  A    between atoms: _702  and  _703
REMARK  287  A    between atoms: _702  and  _705
REMARK  288  A    between atoms: _705  and  _706
REMARK                            x       y       z     vdW  Elec       q    Type
REMARK                         _______ _______ _______ _____ _____    ______ ____
ROOT
ATOM      1  CA  TRP A   1      23.618  16.809  68.678  0.00  0.00    +0.149 C 
ENDROOT
BRANCH   1   2
ATOM      2  C   TRP A   1      22.101  16.704  68.717  0.00  0.00    +0.239 C 
ATOM      3  O   TRP A   1      21.414  17.630  69.153  0.00  0.00    -0.274 OA
ATOM      4  N   ASP A   2      21.588  15.567  68.260  0.00  0.00    -0.298 N 
ATOM      5  H   ASP A   2      22.235  14.816  67.945  0.00  0.00    +0.150 HD
BRANCH   4   6
ATOM      6  CA  ASP A   2      20.151  15.333  68.184  0.00  0.00    +0.148 C 
BRANCH   6   7
ATOM      7  C   ASP A   2      19.490  15.101  69.545  0.00  0.00    +0.227 C 
ATOM      8  O   ASP A   2      18.371  15.554  69.781  0.00  0.00    -0.286 OA
ENDBRANCH   6   7
BRANCH   6   9
ATOM      9  CB  ASP A   2      19.857  14.157  67.252  0.00  0.00    +0.142 C 
BRANCH   9  10
ATOM     10  CG  ASP A   2      19.961  14.535  65.786  0.00  0.00    +0.367 C 
ATOM     11  OD2 ASP A   2      19.707  15.715  65.448  0.00  0.00    -0.246 OA
ATOM     12  OD1 ASP A   2      20.285  13.647  64.972  0.00  0.00    -0.246 OA
ENDBRANCH   9  10
ENDBRANCH   6   9
ENDBRANCH   4   6
ENDBRANCH   1   2
BRANCH   1  13
ATOM     13  N   TRP A   1      24.250  15.568  69.114  0.00  0.00    -0.238 NA
ATOM     14  H   TRP A   1      24.892  15.064  68.469  0.00  0.00    +0.142 HD
ENDBRANCH   1  13
BRANCH   1  15
ATOM     15  CB  TRP A   1      24.069  17.180  67.270  0.00  0.00    +0.054 C 
BRANCH  15  16
ATOM     16  CG  TRP A   1      23.317  18.336  66.681  0.00  0.00    -0.002 A 
ATOM     17  CD2 TRP A   1      23.304  19.689  67.159  0.00  0.00    +0.013 A 
ATOM     18  CE3 TRP A   1      23.921  20.344  68.230  0.00  0.00    +0.001 A 
ATOM     19  CZ3 TRP A   1      23.684  21.700  68.404  0.00  0.00    +0.000 A 
ATOM     20  CH2 TRP A   1      22.846  22.409  67.530  0.00  0.00    +0.001 A 
ATOM     21  CZ2 TRP A   1      22.230  21.792  66.473  0.00  0.00    +0.017 A 
ATOM     22  CE2 TRP A   1      22.468  20.429  66.297  0.00  0.00    +0.056 A 
ATOM     23  NE1 TRP A   1      21.996  19.567  65.342  0.00  0.00    -0.352 N 
ATOM     24  HE1 TRP A   1      21.357  19.821  64.562  0.00  0.00    +0.166 HD
ATOM     25  CD1 TRP A   1      22.503  18.313  65.581  0.00  0.00    +0.068 A 
ENDBRANCH  15  16
ENDBRANCH   1  15
TORSDOF 8
REMARK  Name = ../refined-set-2016/3t6b/3t6b_pocket.pdb
REMARK  288 active torsions:
REMARK  status: ('A' for Active; 'I' for Inactive)
REMARK    1  A    between atoms: _1  and  _3
REMARK    2  A    between atoms: _3  and  _4
REMARK    3  A    between atoms: _6  and  _8
REMARK    4  A    between atoms: _8  and  _9
REMARK    5  A    between atoms: _8  and  _11
REMARK    6  A    between atoms: _11  and  _12
REMARK    7  A    between atoms: _14  and  _16
REMARK    8  A    between atoms: _16  and  _17
REMARK    9  A    between atoms: _16  and  _19
REMARK   10  A    between atoms: _19  and  _20
REMARK   11  A    between atoms: _23  and  _25
REMARK   12  A    between atoms: _25  and  _26
REMARK   13  A    between atoms: _25  and  _28
REMARK   14  A    between atoms: _28  and  _29
REMARK   15  A    between atoms: _31  and  _33
REMARK   16  A    between atoms: _33  and  _34
REMARK   17  A    between atoms: _33  and  _36
REMARK   18  A    between atoms: _36  and  _37
REMARK   19  A    between atoms: _43  and  _45
REMARK   20  A    between atoms: _45  and  _46
REMARK   21  A    between atoms: _45  and  _48
REMARK   22  A    between atoms: _48  and  _49
REMARK   23  A    between atoms: _54  and  _55
REMARK   24  A    between atoms: _57  and  _59
REMARK   25  A    between atoms: _59  and  _60
REMARK   26  A    between atoms: _59  and  _62
REMARK   27  A    between atoms: _62  and  _63
REMARK   28  A    between atoms: _66  and  _68
REMARK   29  A    between atoms: _68  and  _69
REMARK   30  A    between atoms: _68  and  _71
REMARK   31  A    between atoms: _71  and  _72
REMARK   32  A    between atoms: _72  and  _73
REMARK   33  A    between atoms: _76  and  _78
REMARK   34  A    between atoms: _78  and  _79
REMARK   35  A    between atoms: _78  and  _81
REMARK   36  A    between atoms: _81  and  _82
REMARK   37  A    between atoms: _84  and  _86
REMARK   38  A    between atoms: _86  and  _87
REMARK   39  A    between atoms: _86  and  _89
REMARK   40  A    between atoms: _89  and  _90
REMARK   41  A    between atoms: _95  and  _96
REMARK   42  A    between atoms: _98  and  _100
REMARK   43  A    between atoms: _100  and  _101
REMARK   44  A    between atoms: _100  and  _103
REMARK   45  A    between atoms: _103  and  _104
REMARK   46  A    between atoms: _104  and  _105
REMARK   47  A    between atoms: _108  and  _110
REMARK   48  A    between atoms: _110  and  _111
REMARK   49  A    between atoms: _110  and  _113
REMARK   50  A    between atoms: _113  and  _114
REMARK   51  A    between atoms: _120  and  _122
REMARK   52  A    between atoms: _122  and  _123
REMARK   53  A    between atoms: _122  and  _125
REMARK   54  A    between atoms: _125  and  _126
REMARK   55  A    between atoms: _128  and  _130
REMARK   56  A    between atoms: _130  and  _131
REMARK   57  A    between atoms: _133  and  _135
REMARK   58  A    between atoms: _135  and  _136
REMARK   59  A    between atoms: _135  and  _138
REMARK   60  A    between atoms: _138  and  _139
REMARK   61  A    between atoms: _143  and  _144
REMARK   62  A    between atoms: _149  and  _151
REMARK   63  A    between atoms: _151  and  _152
REMARK   64  A    between atoms: _155  and  _157
REMARK   65  A    between atoms: _157  and  _158
REMARK   66  A    between atoms: _160  and  _162
REMARK   67  A    between atoms: _162  and  _163
REMARK   68  A    between atoms: _162  and  _165
REMARK   69  A    between atoms: _165  and  _166
REMARK   70  A    between atoms: _169  and  _171
REMARK   71  A    between atoms: _171  and  _172
REMARK   72  A    between atoms: _171  and  _174
REMARK   73  A    between atoms: _174  and  _175
REMARK   74  A    between atoms: _180  and  _182
REMARK   75  A    between atoms: _182  and  _183
REMARK   76  A    between atoms: _182  and  _185
REMARK   77  A    between atoms: _185  and  _186
REMARK   78  A    between atoms: _190  and  _191
REMARK   79  A    between atoms: _196  and  _198
REMARK   80  A    between atoms: _198  and  _199
REMARK   81  A    between atoms: _198  and  _201
REMARK   82  A    between atoms: _201  and  _202
REMARK   83  A    between atoms: _207  and  _209
REMARK   84  A    between atoms: _209  and  _210
REMARK   85  A    between atoms: _209  and  _212
REMARK   86  A    between atoms: _212  and  _213
REMARK   87  A    between atoms: _218  and  _219
REMARK   88  A    between atoms: _221  and  _223
REMARK   89  A    between atoms: _223  and  _224
REMARK   90  A    between atoms: _223  and  _226
REMARK   91  A    between atoms: _226  and  _227
REMARK   92  A    between atoms: _230  and  _232
REMARK   93  A    between atoms: _232  and  _233
REMARK   94  A    between atoms: _232  and  _235
REMARK   95  A    between atoms: _235  and  _236
REMARK   96  A    between atoms: _236  and  _237
REMARK   97  A    between atoms: _237  and  _238
REMARK   98  A    between atoms: _247  and  _249
REMARK   99  A    between atoms: _249  and  _250
REMARK  100  A    between atoms: _249  and  _252
REMARK  101  A    between atoms: _252  and  _253
REMARK  102  A    between atoms: _253  and  _254
REMARK  103  A    between atoms: _254  and  _255
REMARK  104  A    between atoms: _255  and  _256
REMARK  105  A    between atoms: _260  and  _262
REMARK  106  A    between atoms: _262  and  _263
REMARK  107  A    between atoms: _262  and  _265
REMARK  108  A    between atoms: _265  and  _266
REMARK  109  A    between atoms: _271  and  _273
REMARK  110  A    between atoms: _273  and  _274
REMARK  111  A    between atoms: _273  and  _276
REMARK  112  A    between atoms: _279  and  _281
REMARK  113  A    between atoms: _281  and  _282
REMARK  114  A    between atoms: _281  and  _284
REMARK  115  A    between atoms: _284  and  _285
REMARK  116  A    between atoms: _288  and  _290
REMARK  117  A    between atoms: _290  and  _291
REMARK  118  A    between atoms: _290  and  _293
REMARK  119  A    between atoms: _296  and  _298
REMARK  120  A    between atoms: _298  and  _299
REMARK  121  A    between atoms: _298  and  _301
REMARK  122  A    between atoms: _301  and  _302
REMARK  123  A    between atoms: _305  and  _307
REMARK  124  A    between atoms: _307  and  _308
REMARK  125  A    between atoms: _311  and  _313
REMARK  126  A    between atoms: _313  and  _314
REMARK  127  A    between atoms: _313  and  _316
REMARK  128  A    between atoms: _319  and  _321
REMARK  129  A    between atoms: _321  and  _322
REMARK  130  A    between atoms: _325  and  _327
REMARK  131  A    between atoms: _327  and  _328
REMARK  132  A    between atoms: _331  and  _333
REMARK  133  A    between atoms: _333  and  _334
REMARK  134  A    between atoms: _333  and  _336
REMARK  135  A    between atoms: _336  and  _337
REMARK  136  A    between atoms: _342  and  _343
REMARK  137  A    between atoms: _345  and  _347
REMARK  138  A    between atoms: _347  and  _348
REMARK  139  A    between atoms: _347  and  _350
REMARK  140  A    between atoms: _350  and  _351
REMARK  141  A    between atoms: _351  and  _352
REMARK  142  A    between atoms: _352  and  _353
REMARK  143  A    between atoms: _353  and  _354
REMARK  144  A    between atoms: _358  and  _360
REMARK  145  A    between atoms: _360  and  _361
REMARK  146  A    between atoms: _360  and  _363
REMARK  147  A    between atoms: _363  and  _364
REMARK  148  A    between atoms: _366  and  _368
REMARK  149  A    between atoms: _368  and  _369
REMARK  150  A    between atoms: _368  and  _371
REMARK  151  A    between atoms: _371  and  _372
REMARK  152  A    between atoms: _378  and  _380
REMARK  153  A    between atoms: _380  and  _381
REMARK  154  A    between atoms: _380  and  _383
REMARK  155  A    between atoms: _383  and  _384
REMARK  156  A    between atoms: _387  and  _389
REMARK  157  A    between atoms: _389  and  _390
REMARK  158  A    between atoms: _389  and  _392
REMARK  159  A    between atoms: _395  and  _397
REMARK  160  A    between atoms: _397  and  _398
REMARK  161  A    between atoms: _397  and  _400
REMARK  162  A    between atoms: _400  and  _401
REMARK  163  A    between atoms: _401  and  _402
REMARK  164  A    between atoms: _407  and  _409
REMARK  165  A    between atoms: _409  and  _410
REMARK  166  A    between atoms: _409  and  _412
REMARK  167  A    between atoms: _415  and  _417
REMARK  168  A    between atoms: _417  and  _418
REMARK  169  A    between atoms: _420  and  _422
REMARK  170  A    between atoms: _422  and  _423
REMARK  171  A    between atoms: _422  and  _425
REMARK  172  A    between atoms: _425  and  _426
REMARK  173  A    between atoms: _429  and  _431
REMARK  174  A    between atoms: _431  and  _432
REMARK  175  A    between atoms: _431  and  _434
REMARK  176  A    between atoms: _434  and  _435
REMARK  177  A    between atoms: _440  and  _442
REMARK  178  A    between atoms: _442  and  _443
REMARK  179  A    between atoms: _446  and  _448
REMARK  180  A    between atoms: _448  and  _449
REMARK  181  A    between atoms: _448  and  _451
REMARK  182  A    between atoms: _451  and  _452
REMARK  183  A    between atoms: _457  and  _459
REMARK  184  A    between atoms: _459  and  _460
REMARK  185  A    between atoms: _459  and  _462
REMARK  186  A    between atoms: _462  and  _463
REMARK  187  A    between atoms: _473  and  _475
REMARK  188  A    between atoms: _475  and  _476
REMARK  189  A    between atoms: _475  and  _478
REMARK  190  A    between atoms: _478  and  _479
REMARK  191  A    between atoms: _482  and  _484
REMARK  192  A    between atoms: _484  and  _485
REMARK  193  A    between atoms: _488  and  _490
REMARK  194  A    between atoms: _490  and  _491
REMARK  195  A    between atoms: _490  and  _493
REMARK  196  A    between atoms: _493  and  _494
REMARK  197  A    between atoms: _496  and  _498
REMARK  198  A    between atoms: _498  and  _499
REMARK  199  A    between atoms: _498  and  _501
REMARK  200  A    between atoms: _501  and  _502
REMARK  201  A    between atoms: _502  and  _503
REMARK  202  A    between atoms: _506  and  _508
REMARK  203  A    between atoms: _508  and  _509
REMARK  204  A    between atoms: _508  and  _511
REMARK  205  A    between atoms: _511  and  _512
REMARK  206  A    between atoms: _512  and  _513
REMARK  207  A    between atoms: _516  and  _518
REMARK  208  A    between atoms: _518  and  _519
REMARK  209  A    between atoms: _518  and  _521
REMARK  210  A    between atoms: _521  and  _522
REMARK  211  A    between atoms: _522  and  _523
REMARK  212  A    between atoms: _523  and  _524
REMARK  213  A    between atoms: _533  and  _535
REMARK  214  A    between atoms: _535  and  _536
REMARK  215  A    between atoms: _539  and  _541
REMARK  216  A    between atoms: _541  and  _542
REMARK  217  A    between atoms: _541  and  _544
REMARK  218  A    between atoms: _544  and  _545
REMARK  219  A    between atoms: _545  and  _546
REMARK  220  A    between atoms: _549  and  _551
REMARK  221  A    between atoms: _551  and  _552
REMARK  222  A    between atoms: _554  and  _556
REMARK  223  A    between atoms: _556  and  _557
REMARK  224  A    between atoms: _556  and  _559
REMARK  225  A    between atoms: _559  and  _560
REMARK  226  A    between atoms: _565  and  _567
REMARK  227  A    between atoms: _567  and  _568
REMARK  228  A    between atoms: _567  and  _570
REMARK  229  A    between atoms: _570  and  _571
REMARK  230  A    between atoms: _576  and  _578
REMARK  231  A    between atoms: _578  and  _579
REMARK  232  A    between atoms: _578  and  _581
REMARK  233  A    between atoms: _581  and  _582
REMARK  234  A    between atoms: _582  and  _583
REMARK  235  A    between atoms: _585  and  _587
REMARK  236  A    between atoms: _587  and  _588
REMARK  237  A    between atoms: _587  and  _590
REMARK  238  A    between atoms: _590  and  _591
REMARK  239  A    between atoms: _591  and  _592
REMARK  240  A    between atoms: _597  and  _599
REMARK  241  A    between atoms: _599  and  _600
REMARK  242  A    between atoms: _603  and  _605
REMARK  243  A    between atoms: _605  and  _606
REMARK  244  A    between atoms: _605  and  _608
REMARK  245  A    between atoms: _608  and  _609
REMARK  246  A    between atoms: _614  and  _616
REMARK  247  A    between atoms: _616  and  _617
REMARK  248  A    between atoms: _616  and  _619
REMARK  249  A    between atoms: _619  and  _620
REMARK  250  A    between atoms: _620  and  _621
REMARK  251  A    between atoms: _623  and  _625
REMARK  252  A    between atoms: _625  and  _626
REMARK  253  A    between atoms: _625  and  _628
REMARK  254  A    between atoms: _628  and  _629
REMARK  255  A    between atoms: _629  and  _630
REMARK  256  A    between atoms: _630  and  _631
REMARK  257  A    between atoms: _640  and  _642
REMARK  258  A    between atoms: _642  and  _643
REMARK  259  A    between atoms: _642  and  _645
REMARK  260  A    between atoms: _645  and  _646
REMARK  261  A    between atoms: _646  and  _647
REMARK  262  A    between atoms: _647  and  _648
REMARK  263  A    between atoms: _648  and  _649
REMARK  264  A    between atoms: _653  and  _655
REMARK  265  A    between atoms: _655  and  _656
REMARK  266  A    between atoms: _655  and  _658
REMARK  267  A    between atoms: _658  and  _659
REMARK  268  A    between atoms: _661  and  _663
REMARK  269  A    between atoms: _663  and  _664
REMARK  270  A    between atoms: _663  and  _666
REMARK  271  A    between atoms: _666  and  _667
REMARK  272  A    between atoms: _667  and  _668
REMARK  273  A    between atoms: _668  and  _669
REMARK  274  A    between atoms: _678  and  _680
REMARK  275  A    between atoms: _680  and  _681
REMARK  276  A    between atoms: _680  and  _683
REMARK  277  A    between atoms: _683  and  _684
REMARK  278  A    between atoms: _684  and  _685
REMARK  279  A    between atoms: _685  and  _686
REMARK  280  A    between atoms: _686  and  _687
REMARK  281  A    between atoms: _691  and  _693
REMARK  282  A    between atoms: _693  and  _694
REMARK  283  A    between atoms: _693  and  _696
REMARK  284  A    between atoms: _696  and  _697
REMARK  285  A    between atoms: _700  and  _702
REMARK  286  A    between atoms: _702  and  _703
REMARK  287  A    between atoms: _702  and  _705
REMARK  288  A    between atoms: _705  and  _706
REMARK                            x       y       z     vdW  Elec       q    Type
REMARK                         _______ _______ _______ _____ _____    ______ ____
ROOT
ATOM      1  C   ALA A   1      18.508  20.289  64.841  0.00  0.00    +0.238 C 
ATOM      2  O   ALA A   1      19.495  20.830  64.348  0.00  0.00    -0.274 OA
ATOM      3  N   SER A   2      17.599  19.648  64.112  0.00  0.00    -0.296 N 
ATOM      4  H   SER A   2      16.743  19.281  64.575  0.00  0.00    +0.150 HD
ENDROOT
BRANCH   1   5
ATOM      5  CA  ALA A   1      18.283  20.315  66.352  0.00  0.00    +0.145 C 
ATOM      6  CB  ALA A   1      18.607  18.950  66.963  0.00  0.00    +0.028 C 
BRANCH   5   7
ATOM      7  N   ALA A   1      16.942  20.731  66.740  0.00  0.00    -0.238 NA
ATOM      8  H   ALA A   1      16.361  20.093  67.321  0.00  0.00    +0.142 HD
ENDBRANCH   5   7
ENDBRANCH   1   5
BRANCH   3   9
ATOM      9  CA  SER A   2      17.776  19.448  62.677  0.00  0.00    +0.166 C 
BRANCH   9  10
ATOM     10  C   SER A   2      17.704  20.769  61.929  0.00  0.00    +0.229 C 
ATOM     11  O   SER A   2      18.417  20.977  60.952  0.00  0.00    -0.286 OA
ENDBRANCH   9  10
BRANCH   9  12
ATOM     12  CB  SER A   2      16.732  18.462  62.126  0.00  0.00    +0.165 C 
BRANCH  12  13
ATOM     13  OG  SER A   2      17.343  17.364  61.444  0.00  0.00    -0.380 OA
ATOM     14  H   SER A   2      17.932  16.874  62.071  0.00  0.00    +0.211 HD
ENDBRANCH  12  13
ENDBRANCH   9  12
ENDBRANCH   3   9
TORSDOF 6
REMARK  Name = ../refined-set-2016/3t6b/3t6b_pocket.pdb
REMARK  288 active torsions:
REMARK  status: ('A' for Active; 'I' for Inactive)
REMARK    1  A    between atoms: _1  and  _3
REMARK    2  A    between atoms: _3  and  _4
REMARK    3  A    between atoms: _6  and  _8
REMARK    4  A    between atoms: _8  and  _9
REMARK    5  A    between atoms: _8  and  _11
REMARK    6  A    between atoms: _11  and  _12
REMARK    7  A    between atoms: _14  and  _16
REMARK    8  A    between atoms: _16  and  _17
REMARK    9  A    between atoms: _16  and  _19
REMARK   10  A    between atoms: _19  and  _20
REMARK   11  A    between atoms: _23  and  _25
REMARK   12  A    between atoms: _25  and  _26
REMARK   13  A    between atoms: _25  and  _28
REMARK   14  A    between atoms: _28  and  _29
REMARK   15  A    between atoms: _31  and  _33
REMARK   16  A    between atoms: _33  and  _34
REMARK   17  A    between atoms: _33  and  _36
REMARK   18  A    between atoms: _36  and  _37
REMARK   19  A    between atoms: _43  and  _45
REMARK   20  A    between atoms: _45  and  _46
REMARK   21  A    between atoms: _45  and  _48
REMARK   22  A    between atoms: _48  and  _49
REMARK   23  A    between atoms: _54  and  _55
REMARK   24  A    between atoms: _57  and  _59
REMARK   25  A    between atoms: _59  and  _60
REMARK   26  A    between atoms: _59  and  _62
REMARK   27  A    between atoms: _62  and  _63
REMARK   28  A    between atoms: _66  and  _68
REMARK   29  A    between atoms: _68  and  _69
REMARK   30  A    between atoms: _68  and  _71
REMARK   31  A    between atoms: _71  and  _72
REMARK   32  A    between atoms: _72  and  _73
REMARK   33  A    between atoms: _76  and  _78
REMARK   34  A    between atoms: _78  and  _79
REMARK   35  A    between atoms: _78  and  _81
REMARK   36  A    between atoms: _81  and  _82
REMARK   37  A    between atoms: _84  and  _86
REMARK   38  A    between atoms: _86  and  _87
REMARK   39  A    between atoms: _86  and  _89
REMARK   40  A    between atoms: _89  and  _90
REMARK   41  A    between atoms: _95  and  _96
REMARK   42  A    between atoms: _98  and  _100
REMARK   43  A    between atoms: _100  and  _101
REMARK   44  A    between atoms: _100  and  _103
REMARK   45  A    between atoms: _103  and  _104
REMARK   46  A    between atoms: _104  and  _105
REMARK   47  A    between atoms: _108  and  _110
REMARK   48  A    between atoms: _110  and  _111
REMARK   49  A    between atoms: _110  and  _113
REMARK   50  A    between atoms: _113  and  _114
REMARK   51  A    between atoms: _120  and  _122
REMARK   52  A    between atoms: _122  and  _123
REMARK   53  A    between atoms: _122  and  _125
REMARK   54  A    between atoms: _125  and  _126
REMARK   55  A    between atoms: _128  and  _130
REMARK   56  A    between atoms: _130  and  _131
REMARK   57  A    between atoms: _133  and  _135
REMARK   58  A    between atoms: _135  and  _136
REMARK   59  A    between atoms: _135  and  _138
REMARK   60  A    between atoms: _138  and  _139
REMARK   61  A    between atoms: _143  and  _144
REMARK   62  A    between atoms: _149  and  _151
REMARK   63  A    between atoms: _151  and  _152
REMARK   64  A    between atoms: _155  and  _157
REMARK   65  A    between atoms: _157  and  _158
REMARK   66  A    between atoms: _160  and  _162
REMARK   67  A    between atoms: _162  and  _163
REMARK   68  A    between atoms: _162  and  _165
REMARK   69  A    between atoms: _165  and  _166
REMARK   70  A    between atoms: _169  and  _171
REMARK   71  A    between atoms: _171  and  _172
REMARK   72  A    between atoms: _171  and  _174
REMARK   73  A    between atoms: _174  and  _175
REMARK   74  A    between atoms: _180  and  _182
REMARK   75  A    between atoms: _182  and  _183
REMARK   76  A    between atoms: _182  and  _185
REMARK   77  A    between atoms: _185  and  _186
REMARK   78  A    between atoms: _190  and  _191
REMARK   79  A    between atoms: _196  and  _198
REMARK   80  A    between atoms: _198  and  _199
REMARK   81  A    between atoms: _198  and  _201
REMARK   82  A    between atoms: _201  and  _202
REMARK   83  A    between atoms: _207  and  _209
REMARK   84  A    between atoms: _209  and  _210
REMARK   85  A    between atoms: _209  and  _212
REMARK   86  A    between atoms: _212  and  _213
REMARK   87  A    between atoms: _218  and  _219
REMARK   88  A    between atoms: _221  and  _223
REMARK   89  A    between atoms: _223  and  _224
REMARK   90  A    between atoms: _223  and  _226
REMARK   91  A    between atoms: _226  and  _227
REMARK   92  A    between atoms: _230  and  _232
REMARK   93  A    between atoms: _232  and  _233
REMARK   94  A    between atoms: _232  and  _235
REMARK   95  A    between atoms: _235  and  _236
REMARK   96  A    between atoms: _236  and  _237
REMARK   97  A    between atoms: _237  and  _238
REMARK   98  A    between atoms: _247  and  _249
REMARK   99  A    between atoms: _249  and  _250
REMARK  100  A    between atoms: _249  and  _252
REMARK  101  A    between atoms: _252  and  _253
REMARK  102  A    between atoms: _253  and  _254
REMARK  103  A    between atoms: _254  and  _255
REMARK  104  A    between atoms: _255  and  _256
REMARK  105  A    between atoms: _260  and  _262
REMARK  106  A    between atoms: _262  and  _263
REMARK  107  A    between atoms: _262  and  _265
REMARK  108  A    between atoms: _265  and  _266
REMARK  109  A    between atoms: _271  and  _273
REMARK  110  A    between atoms: _273  and  _274
REMARK  111  A    between atoms: _273  and  _276
REMARK  112  A    between atoms: _279  and  _281
REMARK  113  A    between atoms: _281  and  _282
REMARK  114  A    between atoms: _281  and  _284
REMARK  115  A    between atoms: _284  and  _285
REMARK  116  A    between atoms: _288  and  _290
REMARK  117  A    between atoms: _290  and  _291
REMARK  118  A    between atoms: _290  and  _293
REMARK  119  A    between atoms: _296  and  _298
REMARK  120  A    between atoms: _298  and  _299
REMARK  121  A    between atoms: _298  and  _301
REMARK  122  A    between atoms: _301  and  _302
REMARK  123  A    between atoms: _305  and  _307
REMARK  124  A    between atoms: _307  and  _308
REMARK  125  A    between atoms: _311  and  _313
REMARK  126  A    between atoms: _313  and  _314
REMARK  127  A    between atoms: _313  and  _316
REMARK  128  A    between atoms: _319  and  _321
REMARK  129  A    between atoms: _321  and  _322
REMARK  130  A    between atoms: _325  and  _327
REMARK  131  A    between atoms: _327  and  _328
REMARK  132  A    between atoms: _331  and  _333
REMARK  133  A    between atoms: _333  and  _334
REMARK  134  A    between atoms: _333  and  _336
REMARK  135  A    between atoms: _336  and  _337
REMARK  136  A    between atoms: _342  and  _343
REMARK  137  A    between atoms: _345  and  _347
REMARK  138  A    between atoms: _347  and  _348
REMARK  139  A    between atoms: _347  and  _350
REMARK  140  A    between atoms: _350  and  _351
REMARK  141  A    between atoms: _351  and  _352
REMARK  142  A    between atoms: _352  and  _353
REMARK  143  A    between atoms: _353  and  _354
REMARK  144  A    between atoms: _358  and  _360
REMARK  145  A    between atoms: _360  and  _361
REMARK  146  A    between atoms: _360  and  _363
REMARK  147  A    between atoms: _363  and  _364
REMARK  148  A    between atoms: _366  and  _368
REMARK  149  A    between atoms: _368  and  _369
REMARK  150  A    between atoms: _368  and  _371
REMARK  151  A    between atoms: _371  and  _372
REMARK  152  A    between atoms: _378  and  _380
REMARK  153  A    between atoms: _380  and  _381
REMARK  154  A    between atoms: _380  and  _383
REMARK  155  A    between atoms: _383  and  _384
REMARK  156  A    between atoms: _387  and  _389
REMARK  157  A    between atoms: _389  and  _390
REMARK  158  A    between atoms: _389  and  _392
REMARK  159  A    between atoms: _395  and  _397
REMARK  160  A    between atoms: _397  and  _398
REMARK  161  A    between atoms: _397  and  _400
REMARK  162  A    between atoms: _400  and  _401
REMARK  163  A    between atoms: _401  and  _402
REMARK  164  A    between atoms: _407  and  _409
REMARK  165  A    between atoms: _409  and  _410
REMARK  166  A    between atoms: _409  and  _412
REMARK  167  A    between atoms: _415  and  _417
REMARK  168  A    between atoms: _417  and  _418
REMARK  169  A    between atoms: _420  and  _422
REMARK  170  A    between atoms: _422  and  _423
REMARK  171  A    between atoms: _422  and  _425
REMARK  172  A    between atoms: _425  and  _426
REMARK  173  A    between atoms: _429  and  _431
REMARK  174  A    between atoms: _431  and  _432
REMARK  175  A    between atoms: _431  and  _434
REMARK  176  A    between atoms: _434  and  _435
REMARK  177  A    between atoms: _440  and  _442
REMARK  178  A    between atoms: _442  and  _443
REMARK  179  A    between atoms: _446  and  _448
REMARK  180  A    between atoms: _448  and  _449
REMARK  181  A    between atoms: _448  and  _451
REMARK  182  A    between atoms: _451  and  _452
REMARK  183  A    between atoms: _457  and  _459
REMARK  184  A    between atoms: _459  and  _460
REMARK  185  A    between atoms: _459  and  _462
REMARK  186  A    between atoms: _462  and  _463
REMARK  187  A    between atoms: _473  and  _475
REMARK  188  A    between atoms: _475  and  _476
REMARK  189  A    between atoms: _475  and  _478
REMARK  190  A    between atoms: _478  and  _479
REMARK  191  A    between atoms: _482  and  _484
REMARK  192  A    between atoms: _484  and  _485
REMARK  193  A    between atoms: _488  and  _490
REMARK  194  A    between atoms: _490  and  _491
REMARK  195  A    between atoms: _490  and  _493
REMARK  196  A    between atoms: _493  and  _494
REMARK  197  A    between atoms: _496  and  _498
REMARK  198  A    between atoms: _498  and  _499
REMARK  199  A    between atoms: _498  and  _501
REMARK  200  A    between atoms: _501  and  _502
REMARK  201  A    between atoms: _502  and  _503
REMARK  202  A    between atoms: _506  and  _508
REMARK  203  A    between atoms: _508  and  _509
REMARK  204  A    between atoms: _508  and  _511
REMARK  205  A    between atoms: _511  and  _512
REMARK  206  A    between atoms: _512  and  _513
REMARK  207  A    between atoms: _516  and  _518
REMARK  208  A    between atoms: _518  and  _519
REMARK  209  A    between atoms: _518  and  _521
REMARK  210  A    between atoms: _521  and  _522
REMARK  211  A    between atoms: _522  and  _523
REMARK  212  A    between atoms: _523  and  _524
REMARK  213  A    between atoms: _533  and  _535
REMARK  214  A    between atoms: _535  and  _536
REMARK  215  A    between atoms: _539  and  _541
REMARK  216  A    between atoms: _541  and  _542
REMARK  217  A    between atoms: _541  and  _544
REMARK  218  A    between atoms: _544  and  _545
REMARK  219  A    between atoms: _545  and  _546
REMARK  220  A    between atoms: _549  and  _551
REMARK  221  A    between atoms: _551  and  _552
REMARK  222  A    between atoms: _554  and  _556
REMARK  223  A    between atoms: _556  and  _557
REMARK  224  A    between atoms: _556  and  _559
REMARK  225  A    between atoms: _559  and  _560
REMARK  226  A    between atoms: _565  and  _567
REMARK  227  A    between atoms: _567  and  _568
REMARK  228  A    between atoms: _567  and  _570
REMARK  229  A    between atoms: _570  and  _571
REMARK  230  A    between atoms: _576  and  _578
REMARK  231  A    between atoms: _578  and  _579
REMARK  232  A    between atoms: _578  and  _581
REMARK  233  A    between atoms: _581  and  _582
REMARK  234  A    between atoms: _582  and  _583
REMARK  235  A    between atoms: _585  and  _587
REMARK  236  A    between atoms: _587  and  _588
REMARK  237  A    between atoms: _587  and  _590
REMARK  238  A    between atoms: _590  and  _591
REMARK  239  A    between atoms: _591  and  _592
REMARK  240  A    between atoms: _597  and  _599
REMARK  241  A    between atoms: _599  and  _600
REMARK  242  A    between atoms: _603  and  _605
REMARK  243  A    between atoms: _605  and  _606
REMARK  244  A    between atoms: _605  and  _608
REMARK  245  A    between atoms: _608  and  _609
REMARK  246  A    between atoms: _614  and  _616
REMARK  247  A    between atoms: _616  and  _617
REMARK  248  A    between atoms: _616  and  _619
REMARK  249  A    between atoms: _619  and  _620
REMARK  250  A    between atoms: _620  and  _621
REMARK  251  A    between atoms: _623  and  _625
REMARK  252  A    between atoms: _625  and  _626
REMARK  253  A    between atoms: _625  and  _628
REMARK  254  A    between atoms: _628  and  _629
REMARK  255  A    between atoms: _629  and  _630
REMARK  256  A    between atoms: _630  and  _631
REMARK  257  A    between atoms: _640  and  _642
REMARK  258  A    between atoms: _642  and  _643
REMARK  259  A    between atoms: _642  and  _645
REMARK  260  A    between atoms: _645  and  _646
REMARK  261  A    between atoms: _646  and  _647
REMARK  262  A    between atoms: _647  and  _648
REMARK  263  A    between atoms: _648  and  _649
REMARK  264  A    between atoms: _653  and  _655
REMARK  265  A    between atoms: _655  and  _656
REMARK  266  A    between atoms: _655  and  _658
REMARK  267  A    between atoms: _658  and  _659
REMARK  268  A    between atoms: _661  and  _663
REMARK  269  A    between atoms: _663  and  _664
REMARK  270  A    between atoms: _663  and  _666
REMARK  271  A    between atoms: _666  and  _667
REMARK  272  A    between atoms: _667  and  _668
REMARK  273  A    between atoms: _668  and  _669
REMARK  274  A    between atoms: _678  and  _680
REMARK  275  A    between atoms: _680  and  _681
REMARK  276  A    between atoms: _680  and  _683
REMARK  277  A    between atoms: _683  and  _684
REMARK  278  A    between atoms: _684  and  _685
REMARK  279  A    between atoms: _685  and  _686
REMARK  280  A    between atoms: _686  and  _687
REMARK  281  A    between atoms: _691  and  _693
REMARK  282  A    between atoms: _693  and  _694
REMARK  283  A    between atoms: _693  and  _696
REMARK  284  A    between atoms: _696  and  _697
REMARK  285  A    between atoms: _700  and  _702
REMARK  286  A    between atoms: _702  and  _703
REMARK  287  A    between atoms: _702  and  _705
REMARK  288  A    between atoms: _705  and  _706
REMARK                            x       y       z     vdW  Elec       q    Type
REMARK                         _______ _______ _______ _____ _____    ______ ____
ROOT
ATOM      1  C   GLU A   1      21.756  23.499  60.625  0.00  0.00    +0.238 C 
ATOM      2  N   GLU A   2      20.558  23.385  60.069  0.00  0.00    -0.298 N 
ATOM      3  H   GLU A   2      19.772  23.021  60.645  0.00  0.00    +0.150 HD
ATOM      4  O   GLU A   1      22.740  23.902  60.016  0.00  0.00    -0.274 OA
ENDROOT
BRANCH   1   5
ATOM      5  CA  GLU A   1      21.857  23.095  62.088  0.00  0.00    +0.145 C 
BRANCH   5   6
ATOM      6  N   GLU A   1      20.658  23.471  62.825  0.00  0.00    -0.238 NA
ATOM      7  H   GLU A   1      20.025  22.719  63.165  0.00  0.00    +0.142 HD
ENDBRANCH   5   6
BRANCH   5   8
ATOM      8  CB  GLU A   1      22.097  21.583  62.208  0.00  0.00    +0.038 C 
BRANCH   8   9
ATOM      9  CG  GLU A   1      23.192  21.031  61.300  0.00  0.00    +0.116 C 
BRANCH   9  10
ATOM     10  CD  GLU A   1      24.541  21.703  61.519  0.00  0.00    +0.365 C 
ATOM     11  OE2 GLU A   1      24.765  22.246  62.622  0.00  0.00    -0.246 OA
ATOM     12  OE1 GLU A   1      25.377  21.685  60.587  0.00  0.00    -0.246 OA
ENDBRANCH   9  10
ENDBRANCH   8   9
ENDBRANCH   5   8
ENDBRANCH   1   5
BRANCH   2  13
ATOM     13  CA  GLU A   2      20.300  23.750  58.683  0.00  0.00    +0.137 C 
BRANCH  13  14
ATOM     14  C   GLU A   2      20.403  25.263  58.506  0.00  0.00    +0.227 C 
ATOM     15  O   GLU A   2      20.899  25.754  57.486  0.00  0.00    -0.286 OA
ENDBRANCH  13  14
BRANCH  13  16
ATOM     16  CB  GLU A   2      18.909  23.272  58.279  0.00  0.00    +0.039 C 
BRANCH  16  17
ATOM     17  CG  GLU A   2      18.849  22.635  56.911  0.00  0.00    +0.116 C 
BRANCH  17  18
ATOM     18  CD  GLU A   2      19.827  21.480  56.763  0.00  0.00    +0.365 C 
ATOM     19  OE2 GLU A   2      19.583  20.395  57.344  0.00  0.00    -0.246 OA
ATOM     20  OE1 GLU A   2      20.844  21.661  56.059  0.00  0.00    -0.246 OA
ENDBRANCH  17  18
ENDBRANCH  16  17
ENDBRANCH  13  16
ENDBRANCH   2  13
TORSDOF 10
REMARK  Name = ../refined-set-2016/3t6b/3t6b_pocket.pdb
REMARK  288 active torsions:
REMARK  status: ('A' for Active; 'I' for Inactive)
REMARK    1  A    between atoms: _1  and  _3
REMARK    2  A    between atoms: _3  and  _4
REMARK    3  A    between atoms: _6  and  _8
REMARK    4  A    between atoms: _8  and  _9
REMARK    5  A    between atoms: _8  and  _11
REMARK    6  A    between atoms: _11  and  _12
REMARK    7  A    between atoms: _14  and  _16
REMARK    8  A    between atoms: _16  and  _17
REMARK    9  A    between atoms: _16  and  _19
REMARK   10  A    between atoms: _19  and  _20
REMARK   11  A    between atoms: _23  and  _25
REMARK   12  A    between atoms: _25  and  _26
REMARK   13  A    between atoms: _25  and  _28
REMARK   14  A    between atoms: _28  and  _29
REMARK   15  A    between atoms: _31  and  _33
REMARK   16  A    between atoms: _33  and  _34
REMARK   17  A    between atoms: _33  and  _36
REMARK   18  A    between atoms: _36  and  _37
REMARK   19  A    between atoms: _43  and  _45
REMARK   20  A    between atoms: _45  and  _46
REMARK   21  A    between atoms: _45  and  _48
REMARK   22  A    between atoms: _48  and  _49
REMARK   23  A    between atoms: _54  and  _55
REMARK   24  A    between atoms: _57  and  _59
REMARK   25  A    between atoms: _59  and  _60
REMARK   26  A    between atoms: _59  and  _62
REMARK   27  A    between atoms: _62  and  _63
REMARK   28  A    between atoms: _66  and  _68
REMARK   29  A    between atoms: _68  and  _69
REMARK   30  A    between atoms: _68  and  _71
REMARK   31  A    between atoms: _71  and  _72
REMARK   32  A    between atoms: _72  and  _73
REMARK   33  A    between atoms: _76  and  _78
REMARK   34  A    between atoms: _78  and  _79
REMARK   35  A    between atoms: _78  and  _81
REMARK   36  A    between atoms: _81  and  _82
REMARK   37  A    between atoms: _84  and  _86
REMARK   38  A    between atoms: _86  and  _87
REMARK   39  A    between atoms: _86  and  _89
REMARK   40  A    between atoms: _89  and  _90
REMARK   41  A    between atoms: _95  and  _96
REMARK   42  A    between atoms: _98  and  _100
REMARK   43  A    between atoms: _100  and  _101
REMARK   44  A    between atoms: _100  and  _103
REMARK   45  A    between atoms: _103  and  _104
REMARK   46  A    between atoms: _104  and  _105
REMARK   47  A    between atoms: _108  and  _110
REMARK   48  A    between atoms: _110  and  _111
REMARK   49  A    between atoms: _110  and  _113
REMARK   50  A    between atoms: _113  and  _114
REMARK   51  A    between atoms: _120  and  _122
REMARK   52  A    between atoms: _122  and  _123
REMARK   53  A    between atoms: _122  and  _125
REMARK   54  A    between atoms: _125  and  _126
REMARK   55  A    between atoms: _128  and  _130
REMARK   56  A    between atoms: _130  and  _131
REMARK   57  A    between atoms: _133  and  _135
REMARK   58  A    between atoms: _135  and  _136
REMARK   59  A    between atoms: _135  and  _138
REMARK   60  A    between atoms: _138  and  _139
REMARK   61  A    between atoms: _143  and  _144
REMARK   62  A    between atoms: _149  and  _151
REMARK   63  A    between atoms: _151  and  _152
REMARK   64  A    between atoms: _155  and  _157
REMARK   65  A    between atoms: _157  and  _158
REMARK   66  A    between atoms: _160  and  _162
REMARK   67  A    between atoms: _162  and  _163
REMARK   68  A    between atoms: _162  and  _165
REMARK   69  A    between atoms: _165  and  _166
REMARK   70  A    between atoms: _169  and  _171
REMARK   71  A    between atoms: _171  and  _172
REMARK   72  A    between atoms: _171  and  _174
REMARK   73  A    between atoms: _174  and  _175
REMARK   74  A    between atoms: _180  and  _182
REMARK   75  A    between atoms: _182  and  _183
REMARK   76  A    between atoms: _182  and  _185
REMARK   77  A    between atoms: _185  and  _186
REMARK   78  A    between atoms: _190  and  _191
REMARK   79  A    between atoms: _196  and  _198
REMARK   80  A    between atoms: _198  and  _199
REMARK   81  A    between atoms: _198  and  _201
REMARK   82  A    between atoms: _201  and  _202
REMARK   83  A    between atoms: _207  and  _209
REMARK   84  A    between atoms: _209  and  _210
REMARK   85  A    between atoms: _209  and  _212
REMARK   86  A    between atoms: _212  and  _213
REMARK   87  A    between atoms: _218  and  _219
REMARK   88  A    between atoms: _221  and  _223
REMARK   89  A    between atoms: _223  and  _224
REMARK   90  A    between atoms: _223  and  _226
REMARK   91  A    between atoms: _226  and  _227
REMARK   92  A    between atoms: _230  and  _232
REMARK   93  A    between atoms: _232  and  _233
REMARK   94  A    between atoms: _232  and  _235
REMARK   95  A    between atoms: _235  and  _236
REMARK   96  A    between atoms: _236  and  _237
REMARK   97  A    between atoms: _237  and  _238
REMARK   98  A    between atoms: _247  and  _249
REMARK   99  A    between atoms: _249  and  _250
REMARK  100  A    between atoms: _249  and  _252
REMARK  101  A    between atoms: _252  and  _253
REMARK  102  A    between atoms: _253  and  _254
REMARK  103  A    between atoms: _254  and  _255
REMARK  104  A    between atoms: _255  and  _256
REMARK  105  A    between atoms: _260  and  _262
REMARK  106  A    between atoms: _262  and  _263
REMARK  107  A    between atoms: _262  and  _265
REMARK  108  A    between atoms: _265  and  _266
REMARK  109  A    between atoms: _271  and  _273
REMARK  110  A    between atoms: _273  and  _274
REMARK  111  A    between atoms: _273  and  _276
REMARK  112  A    between atoms: _279  and  _281
REMARK  113  A    between atoms: _281  and  _282
REMARK  114  A    between atoms: _281  and  _284
REMARK  115  A    between atoms: _284  and  _285
REMARK  116  A    between atoms: _288  and  _290
REMARK  117  A    between atoms: _290  and  _291
REMARK  118  A    between atoms: _290  and  _293
REMARK  119  A    between atoms: _296  and  _298
REMARK  120  A    between atoms: _298  and  _299
REMARK  121  A    between atoms: _298  and  _301
REMARK  122  A    between atoms: _301  and  _302
REMARK  123  A    between atoms: _305  and  _307
REMARK  124  A    between atoms: _307  and  _308
REMARK  125  A    between atoms: _311  and  _313
REMARK  126  A    between atoms: _313  and  _314
REMARK  127  A    between atoms: _313  and  _316
REMARK  128  A    between atoms: _319  and  _321
REMARK  129  A    between atoms: _321  and  _322
REMARK  130  A    between atoms: _325  and  _327
REMARK  131  A    between atoms: _327  and  _328
REMARK  132  A    between atoms: _331  and  _333
REMARK  133  A    between atoms: _333  and  _334
REMARK  134  A    between atoms: _333  and  _336
REMARK  135  A    between atoms: _336  and  _337
REMARK  136  A    between atoms: _342  and  _343
REMARK  137  A    between atoms: _345  and  _347
REMARK  138  A    between atoms: _347  and  _348
REMARK  139  A    between atoms: _347  and  _350
REMARK  140  A    between atoms: _350  and  _351
REMARK  141  A    between atoms: _351  and  _352
REMARK  142  A    between atoms: _352  and  _353
REMARK  143  A    between atoms: _353  and  _354
REMARK  144  A    between atoms: _358  and  _360
REMARK  145  A    between atoms: _360  and  _361
REMARK  146  A    between atoms: _360  and  _363
REMARK  147  A    between atoms: _363  and  _364
REMARK  148  A    between atoms: _366  and  _368
REMARK  149  A    between atoms: _368  and  _369
REMARK  150  A    between atoms: _368  and  _371
REMARK  151  A    between atoms: _371  and  _372
REMARK  152  A    between atoms: _378  and  _380
REMARK  153  A    between atoms: _380  and  _381
REMARK  154  A    between atoms: _380  and  _383
REMARK  155  A    between atoms: _383  and  _384
REMARK  156  A    between atoms: _387  and  _389
REMARK  157  A    between atoms: _389  and  _390
REMARK  158  A    between atoms: _389  and  _392
REMARK  159  A    between atoms: _395  and  _397
REMARK  160  A    between atoms: _397  and  _398
REMARK  161  A    between atoms: _397  and  _400
REMARK  162  A    between atoms: _400  and  _401
REMARK  163  A    between atoms: _401  and  _402
REMARK  164  A    between atoms: _407  and  _409
REMARK  165  A    between atoms: _409  and  _410
REMARK  166  A    between atoms: _409  and  _412
REMARK  167  A    between atoms: _415  and  _417
REMARK  168  A    between atoms: _417  and  _418
REMARK  169  A    between atoms: _420  and  _422
REMARK  170  A    between atoms: _422  and  _423
REMARK  171  A    between atoms: _422  and  _425
REMARK  172  A    between atoms: _425  and  _426
REMARK  173  A    between atoms: _429  and  _431
REMARK  174  A    between atoms: _431  and  _432
REMARK  175  A    between atoms: _431  and  _434
REMARK  176  A    between atoms: _434  and  _435
REMARK  177  A    between atoms: _440  and  _442
REMARK  178  A    between atoms: _442  and  _443
REMARK  179  A    between atoms: _446  and  _448
REMARK  180  A    between atoms: _448  and  _449
REMARK  181  A    between atoms: _448  and  _451
REMARK  182  A    between atoms: _451  and  _452
REMARK  183  A    between atoms: _457  and  _459
REMARK  184  A    between atoms: _459  and  _460
REMARK  185  A    between atoms: _459  and  _462
REMARK  186  A    between atoms: _462  and  _463
REMARK  187  A    between atoms: _473  and  _475
REMARK  188  A    between atoms: _475  and  _476
REMARK  189  A    between atoms: _475  and  _478
REMARK  190  A    between atoms: _478  and  _479
REMARK  191  A    between atoms: _482  and  _484
REMARK  192  A    between atoms: _484  and  _485
REMARK  193  A    between atoms: _488  and  _490
REMARK  194  A    between atoms: _490  and  _491
REMARK  195  A    between atoms: _490  and  _493
REMARK  196  A    between atoms: _493  and  _494
REMARK  197  A    between atoms: _496  and  _498
REMARK  198  A    between atoms: _498  and  _499
REMARK  199  A    between atoms: _498  and  _501
REMARK  200  A    between atoms: _501  and  _502
REMARK  201  A    between atoms: _502  and  _503
REMARK  202  A    between atoms: _506  and  _508
REMARK  203  A    between atoms: _508  and  _509
REMARK  204  A    between atoms: _508  and  _511
REMARK  205  A    between atoms: _511  and  _512
REMARK  206  A    between atoms: _512  and  _513
REMARK  207  A    between atoms: _516  and  _518
REMARK  208  A    between atoms: _518  and  _519
REMARK  209  A    between atoms: _518  and  _521
REMARK  210  A    between atoms: _521  and  _522
REMARK  211  A    between atoms: _522  and  _523
REMARK  212  A    between atoms: _523  and  _524
REMARK  213  A    between atoms: _533  and  _535
REMARK  214  A    between atoms: _535  and  _536
REMARK  215  A    between atoms: _539  and  _541
REMARK  216  A    between atoms: _541  and  _542
REMARK  217  A    between atoms: _541  and  _544
REMARK  218  A    between atoms: _544  and  _545
REMARK  219  A    between atoms: _545  and  _546
REMARK  220  A    between atoms: _549  and  _551
REMARK  221  A    between atoms: _551  and  _552
REMARK  222  A    between atoms: _554  and  _556
REMARK  223  A    between atoms: _556  and  _557
REMARK  224  A    between atoms: _556  and  _559
REMARK  225  A    between atoms: _559  and  _560
REMARK  226  A    between atoms: _565  and  _567
REMARK  227  A    between atoms: _567  and  _568
REMARK  228  A    between atoms: _567  and  _570
REMARK  229  A    between atoms: _570  and  _571
REMARK  230  A    between atoms: _576  and  _578
REMARK  231  A    between atoms: _578  and  _579
REMARK  232  A    between atoms: _578  and  _581
REMARK  233  A    between atoms: _581  and  _582
REMARK  234  A    between atoms: _582  and  _583
REMARK  235  A    between atoms: _585  and  _587
REMARK  236  A    between atoms: _587  and  _588
REMARK  237  A    between atoms: _587  and  _590
REMARK  238  A    between atoms: _590  and  _591
REMARK  239  A    between atoms: _591  and  _592
REMARK  240  A    between atoms: _597  and  _599
REMARK  241  A    between atoms: _599  and  _600
REMARK  242  A    between atoms: _603  and  _605
REMARK  243  A    between atoms: _605  and  _606
REMARK  244  A    between atoms: _605  and  _608
REMARK  245  A    between atoms: _608  and  _609
REMARK  246  A    between atoms: _614  and  _616
REMARK  247  A    between atoms: _616  and  _617
REMARK  248  A    between atoms: _616  and  _619
REMARK  249  A    between atoms: _619  and  _620
REMARK  250  A    between atoms: _620  and  _621
REMARK  251  A    between atoms: _623  and  _625
REMARK  252  A    between atoms: _625  and  _626
REMARK  253  A    between atoms: _625  and  _628
REMARK  254  A    between atoms: _628  and  _629
REMARK  255  A    between atoms: _629  and  _630
REMARK  256  A    between atoms: _630  and  _631
REMARK  257  A    between atoms: _640  and  _642
REMARK  258  A    between atoms: _642  and  _643
REMARK  259  A    between atoms: _642  and  _645
REMARK  260  A    between atoms: _645  and  _646
REMARK  261  A    between atoms: _646  and  _647
REMARK  262  A    between atoms: _647  and  _648
REMARK  263  A    between atoms: _648  and  _649
REMARK  264  A    between atoms: _653  and  _655
REMARK  265  A    between atoms: _655  and  _656
REMARK  266  A    between atoms: _655  and  _658
REMARK  267  A    between atoms: _658  and  _659
REMARK  268  A    between atoms: _661  and  _663
REMARK  269  A    between atoms: _663  and  _664
REMARK  270  A    between atoms: _663  and  _666
REMARK  271  A    between atoms: _666  and  _667
REMARK  272  A    between atoms: _667  and  _668
REMARK  273  A    between atoms: _668  and  _669
REMARK  274  A    between atoms: _678  and  _680
REMARK  275  A    between atoms: _680  and  _681
REMARK  276  A    between atoms: _680  and  _683
REMARK  277  A    between atoms: _683  and  _684
REMARK  278  A    between atoms: _684  and  _685
REMARK  279  A    between atoms: _685  and  _686
REMARK  280  A    between atoms: _686  and  _687
REMARK  281  A    between atoms: _691  and  _693
REMARK  282  A    between atoms: _693  and  _694
REMARK  283  A    between atoms: _693  and  _696
REMARK  284  A    between atoms: _696  and  _697
REMARK  285  A    between atoms: _700  and  _702
REMARK  286  A    between atoms: _702  and  _703
REMARK  287  A    between atoms: _702  and  _705
REMARK  288  A    between atoms: _705  and  _706
REMARK                            x       y       z     vdW  Elec       q    Type
REMARK                         _______ _______ _______ _____ _____    ______ ____
ROOT
ATOM      1  C   ARG A   1      24.353  27.295  58.971  0.00  0.00    +0.238 C 
ATOM      2  O   ARG A   1      25.052  28.158  58.454  0.00  0.00    -0.274 OA
ATOM      3  N   ALA A   2      24.075  26.142  58.371  0.00  0.00    -0.297 N 
ATOM      4  H   ALA A   2      23.436  25.470  58.842  0.00  0.00    +0.150 HD
ENDROOT
BRANCH   3   5
ATOM      5  CA  ALA A   2      24.641  25.788  57.067  0.00  0.00    +0.149 C 
ATOM      6  CB  ALA A   2      24.286  24.340  56.709  0.00  0.00    +0.031 C 
BRANCH   5   7
ATOM      7  C   ALA A   2      24.257  26.739  55.919  0.00  0.00    +0.241 C 
ATOM      8  N   GLU A   3      23.001  27.180  55.869  0.00  0.00    -0.298 N 
ATOM      9  H   GLU A   3      22.315  26.871  56.587  0.00  0.00    +0.150 HD
ATOM     10  O   ALA A   2      25.095  27.059  55.077  0.00  0.00    -0.273 OA
BRANCH   8  11
ATOM     11  CA  GLU A   3      22.582  28.098  54.808  0.00  0.00    +0.137 C 
BRANCH  11  12
ATOM     12  C   GLU A   3      23.082  29.518  55.054  0.00  0.00    +0.227 C 
ATOM     13  O   GLU A   3      23.200  30.308  54.121  0.00  0.00    -0.286 OA
ENDBRANCH  11  12
BRANCH  11  14
ATOM     14  CB  GLU A   3      21.059  28.080  54.597  0.00  0.00    +0.039 C 
BRANCH  14  15
ATOM     15  CG  GLU A   3      20.582  26.896  53.749  0.00  0.00    +0.116 C 
BRANCH  15  16
ATOM     16  CD  GLU A   3      19.091  26.923  53.437  0.00  0.00    +0.365 C 
ATOM     17  OE2 GLU A   3      18.366  26.017  53.911  0.00  0.00    -0.246 OA
ATOM     18  OE1 GLU A   3      18.648  27.833  52.704  0.00  0.00    -0.246 OA
ENDBRANCH  15  16
ENDBRANCH  14  15
ENDBRANCH  11  14
ENDBRANCH   8  11
ENDBRANCH   5   7
ENDBRANCH   3   5
BRANCH   1  19
ATOM     19  CA  ARG A   1      23.727  27.516  60.348  0.00  0.00    +0.145 C 
BRANCH  19  20
ATOM     20  N   ARG A   1      22.308  27.205  60.292  0.00  0.00    -0.238 NA
ATOM     21  H   ARG A   1      21.933  26.425  60.869  0.00  0.00    +0.142 HD
ENDBRANCH  19  20
BRANCH  19  22
ATOM     22  CB  ARG A   1      24.411  26.645  61.404  0.00  0.00    +0.030 C 
BRANCH  22  23
ATOM     23  CG  ARG A   1      25.772  27.152  61.862  0.00  0.00    +0.045 C 
BRANCH  23  24
ATOM     24  CD  ARG A   1      26.440  26.163  62.817  0.00  0.00    +0.174 C 
BRANCH  24  25
ATOM     25  NE  ARG A   1      26.733  24.897  62.152  0.00  0.00    -0.265 N 
ATOM     26  HE  ARG A   1      25.984  24.176  62.133  0.00  0.00    +0.259 HD
ATOM     27  CZ  ARG A   1      27.891  24.600  61.568  0.00  0.00    +0.342 C 
ATOM     28  NH2 ARG A   1      28.901  25.471  61.566  0.00  0.00    -0.292 N 
ATOM     29 HH21 ARG A   1      28.790  26.397  62.025  0.00  0.00    +0.255 HD
ATOM     30 HH22 ARG A   1      29.800  25.224  61.105  0.00  0.00    +0.255 HD
ATOM     31  NH1 ARG A   1      28.039  23.421  60.982  0.00  0.00    -0.292 N 
ATOM     32 HH11 ARG A   1      27.254  22.738  60.982  0.00  0.00    +0.255 HD
ATOM     33 HH12 ARG A   1      28.940  23.178  60.522  0.00  0.00    +0.255 HD
ENDBRANCH  24  25
ENDBRANCH  23  24
ENDBRANCH  22  23
ENDBRANCH  19  22
ENDBRANCH   1  19
TORSDOF 13
REMARK  Name = ../refined-set-2016/3t6b/3t6b_pocket.pdb
REMARK  288 active torsions:
REMARK  status: ('A' for Active; 'I' for Inactive)
REMARK    1  A    between atoms: _1  and  _3
REMARK    2  A    between atoms: _3  and  _4
REMARK    3  A    between atoms: _6  and  _8
REMARK    4  A    between atoms: _8  and  _9
REMARK    5  A    between atoms: _8  and  _11
REMARK    6  A    between atoms: _11  and  _12
REMARK    7  A    between atoms: _14  and  _16
REMARK    8  A    between atoms: _16  and  _17
REMARK    9  A    between atoms: _16  and  _19
REMARK   10  A    between atoms: _19  and  _20
REMARK   11  A    between atoms: _23  and  _25
REMARK   12  A    between atoms: _25  and  _26
REMARK   13  A    between atoms: _25  and  _28
REMARK   14  A    between atoms: _28  and  _29
REMARK   15  A    between atoms: _31  and  _33
REMARK   16  A    between atoms: _33  and  _34
REMARK   17  A    between atoms: _33  and  _36
REMARK   18  A    between atoms: _36  and  _37
REMARK   19  A    between atoms: _43  and  _45
REMARK   20  A    between atoms: _45  and  _46
REMARK   21  A    between atoms: _45  and  _48
REMARK   22  A    between atoms: _48  and  _49
REMARK   23  A    between atoms: _54  and  _55
REMARK   24  A    between atoms: _57  and  _59
REMARK   25  A    between atoms: _59  and  _60
REMARK   26  A    between atoms: _59  and  _62
REMARK   27  A    between atoms: _62  and  _63
REMARK   28  A    between atoms: _66  and  _68
REMARK   29  A    between atoms: _68  and  _69
REMARK   30  A    between atoms: _68  and  _71
REMARK   31  A    between atoms: _71  and  _72
REMARK   32  A    between atoms: _72  and  _73
REMARK   33  A    between atoms: _76  and  _78
REMARK   34  A    between atoms: _78  and  _79
REMARK   35  A    between atoms: _78  and  _81
REMARK   36  A    between atoms: _81  and  _82
REMARK   37  A    between atoms: _84  and  _86
REMARK   38  A    between atoms: _86  and  _87
REMARK   39  A    between atoms: _86  and  _89
REMARK   40  A    between atoms: _89  and  _90
REMARK   41  A    between atoms: _95  and  _96
REMARK   42  A    between atoms: _98  and  _100
REMARK   43  A    between atoms: _100  and  _101
REMARK   44  A    between atoms: _100  and  _103
REMARK   45  A    between atoms: _103  and  _104
REMARK   46  A    between atoms: _104  and  _105
REMARK   47  A    between atoms: _108  and  _110
REMARK   48  A    between atoms: _110  and  _111
REMARK   49  A    between atoms: _110  and  _113
REMARK   50  A    between atoms: _113  and  _114
REMARK   51  A    between atoms: _120  and  _122
REMARK   52  A    between atoms: _122  and  _123
REMARK   53  A    between atoms: _122  and  _125
REMARK   54  A    between atoms: _125  and  _126
REMARK   55  A    between atoms: _128  and  _130
REMARK   56  A    between atoms: _130  and  _131
REMARK   57  A    between atoms: _133  and  _135
REMARK   58  A    between atoms: _135  and  _136
REMARK   59  A    between atoms: _135  and  _138
REMARK   60  A    between atoms: _138  and  _139
REMARK   61  A    between atoms: _143  and  _144
REMARK   62  A    between atoms: _149  and  _151
REMARK   63  A    between atoms: _151  and  _152
REMARK   64  A    between atoms: _155  and  _157
REMARK   65  A    between atoms: _157  and  _158
REMARK   66  A    between atoms: _160  and  _162
REMARK   67  A    between atoms: _162  and  _163
REMARK   68  A    between atoms: _162  and  _165
REMARK   69  A    between atoms: _165  and  _166
REMARK   70  A    between atoms: _169  and  _171
REMARK   71  A    between atoms: _171  and  _172
REMARK   72  A    between atoms: _171  and  _174
REMARK   73  A    between atoms: _174  and  _175
REMARK   74  A    between atoms: _180  and  _182
REMARK   75  A    between atoms: _182  and  _183
REMARK   76  A    between atoms: _182  and  _185
REMARK   77  A    between atoms: _185  and  _186
REMARK   78  A    between atoms: _190  and  _191
REMARK   79  A    between atoms: _196  and  _198
REMARK   80  A    between atoms: _198  and  _199
REMARK   81  A    between atoms: _198  and  _201
REMARK   82  A    between atoms: _201  and  _202
REMARK   83  A    between atoms: _207  and  _209
REMARK   84  A    between atoms: _209  and  _210
REMARK   85  A    between atoms: _209  and  _212
REMARK   86  A    between atoms: _212  and  _213
REMARK   87  A    between atoms: _218  and  _219
REMARK   88  A    between atoms: _221  and  _223
REMARK   89  A    between atoms: _223  and  _224
REMARK   90  A    between atoms: _223  and  _226
REMARK   91  A    between atoms: _226  and  _227
REMARK   92  A    between atoms: _230  and  _232
REMARK   93  A    between atoms: _232  and  _233
REMARK   94  A    between atoms: _232  and  _235
REMARK   95  A    between atoms: _235  and  _236
REMARK   96  A    between atoms: _236  and  _237
REMARK   97  A    between atoms: _237  and  _238
REMARK   98  A    between atoms: _247  and  _249
REMARK   99  A    between atoms: _249  and  _250
REMARK  100  A    between atoms: _249  and  _252
REMARK  101  A    between atoms: _252  and  _253
REMARK  102  A    between atoms: _253  and  _254
REMARK  103  A    between atoms: _254  and  _255
REMARK  104  A    between atoms: _255  and  _256
REMARK  105  A    between atoms: _260  and  _262
REMARK  106  A    between atoms: _262  and  _263
REMARK  107  A    between atoms: _262  and  _265
REMARK  108  A    between atoms: _265  and  _266
REMARK  109  A    between atoms: _271  and  _273
REMARK  110  A    between atoms: _273  and  _274
REMARK  111  A    between atoms: _273  and  _276
REMARK  112  A    between atoms: _279  and  _281
REMARK  113  A    between atoms: _281  and  _282
REMARK  114  A    between atoms: _281  and  _284
REMARK  115  A    between atoms: _284  and  _285
REMARK  116  A    between atoms: _288  and  _290
REMARK  117  A    between atoms: _290  and  _291
REMARK  118  A    between atoms: _290  and  _293
REMARK  119  A    between atoms: _296  and  _298
REMARK  120  A    between atoms: _298  and  _299
REMARK  121  A    between atoms: _298  and  _301
REMARK  122  A    between atoms: _301  and  _302
REMARK  123  A    between atoms: _305  and  _307
REMARK  124  A    between atoms: _307  and  _308
REMARK  125  A    between atoms: _311  and  _313
REMARK  126  A    between atoms: _313  and  _314
REMARK  127  A    between atoms: _313  and  _316
REMARK  128  A    between atoms: _319  and  _321
REMARK  129  A    between atoms: _321  and  _322
REMARK  130  A    between atoms: _325  and  _327
REMARK  131  A    between atoms: _327  and  _328
REMARK  132  A    between atoms: _331  and  _333
REMARK  133  A    between atoms: _333  and  _334
REMARK  134  A    between atoms: _333  and  _336
REMARK  135  A    between atoms: _336  and  _337
REMARK  136  A    between atoms: _342  and  _343
REMARK  137  A    between atoms: _345  and  _347
REMARK  138  A    between atoms: _347  and  _348
REMARK  139  A    between atoms: _347  and  _350
REMARK  140  A    between atoms: _350  and  _351
REMARK  141  A    between atoms: _351  and  _352
REMARK  142  A    between atoms: _352  and  _353
REMARK  143  A    between atoms: _353  and  _354
REMARK  144  A    between atoms: _358  and  _360
REMARK  145  A    between atoms: _360  and  _361
REMARK  146  A    between atoms: _360  and  _363
REMARK  147  A    between atoms: _363  and  _364
REMARK  148  A    between atoms: _366  and  _368
REMARK  149  A    between atoms: _368  and  _369
REMARK  150  A    between atoms: _368  and  _371
REMARK  151  A    between atoms: _371  and  _372
REMARK  152  A    between atoms: _378  and  _380
REMARK  153  A    between atoms: _380  and  _381
REMARK  154  A    between atoms: _380  and  _383
REMARK  155  A    between atoms: _383  and  _384
REMARK  156  A    between atoms: _387  and  _389
REMARK  157  A    between atoms: _389  and  _390
REMARK  158  A    between atoms: _389  and  _392
REMARK  159  A    between atoms: _395  and  _397
REMARK  160  A    between atoms: _397  and  _398
REMARK  161  A    between atoms: _397  and  _400
REMARK  162  A    between atoms: _400  and  _401
REMARK  163  A    between atoms: _401  and  _402
REMARK  164  A    between atoms: _407  and  _409
REMARK  165  A    between atoms: _409  and  _410
REMARK  166  A    between atoms: _409  and  _412
REMARK  167  A    between atoms: _415  and  _417
REMARK  168  A    between atoms: _417  and  _418
REMARK  169  A    between atoms: _420  and  _422
REMARK  170  A    between atoms: _422  and  _423
REMARK  171  A    between atoms: _422  and  _425
REMARK  172  A    between atoms: _425  and  _426
REMARK  173  A    between atoms: _429  and  _431
REMARK  174  A    between atoms: _431  and  _432
REMARK  175  A    between atoms: _431  and  _434
REMARK  176  A    between atoms: _434  and  _435
REMARK  177  A    between atoms: _440  and  _442
REMARK  178  A    between atoms: _442  and  _443
REMARK  179  A    between atoms: _446  and  _448
REMARK  180  A    between atoms: _448  and  _449
REMARK  181  A    between atoms: _448  and  _451
REMARK  182  A    between atoms: _451  and  _452
REMARK  183  A    between atoms: _457  and  _459
REMARK  184  A    between atoms: _459  and  _460
REMARK  185  A    between atoms: _459  and  _462
REMARK  186  A    between atoms: _462  and  _463
REMARK  187  A    between atoms: _473  and  _475
REMARK  188  A    between atoms: _475  and  _476
REMARK  189  A    between atoms: _475  and  _478
REMARK  190  A    between atoms: _478  and  _479
REMARK  191  A    between atoms: _482  and  _484
REMARK  192  A    between atoms: _484  and  _485
REMARK  193  A    between atoms: _488  and  _490
REMARK  194  A    between atoms: _490  and  _491
REMARK  195  A    between atoms: _490  and  _493
REMARK  196  A    between atoms: _493  and  _494
REMARK  197  A    between atoms: _496  and  _498
REMARK  198  A    between atoms: _498  and  _499
REMARK  199  A    between atoms: _498  and  _501
REMARK  200  A    between atoms: _501  and  _502
REMARK  201  A    between atoms: _502  and  _503
REMARK  202  A    between atoms: _506  and  _508
REMARK  203  A    between atoms: _508  and  _509
REMARK  204  A    between atoms: _508  and  _511
REMARK  205  A    between atoms: _511  and  _512
REMARK  206  A    between atoms: _512  and  _513
REMARK  207  A    between atoms: _516  and  _518
REMARK  208  A    between atoms: _518  and  _519
REMARK  209  A    between atoms: _518  and  _521
REMARK  210  A    between atoms: _521  and  _522
REMARK  211  A    between atoms: _522  and  _523
REMARK  212  A    between atoms: _523  and  _524
REMARK  213  A    between atoms: _533  and  _535
REMARK  214  A    between atoms: _535  and  _536
REMARK  215  A    between atoms: _539  and  _541
REMARK  216  A    between atoms: _541  and  _542
REMARK  217  A    between atoms: _541  and  _544
REMARK  218  A    between atoms: _544  and  _545
REMARK  219  A    between atoms: _545  and  _546
REMARK  220  A    between atoms: _549  and  _551
REMARK  221  A    between atoms: _551  and  _552
REMARK  222  A    between atoms: _554  and  _556
REMARK  223  A    between atoms: _556  and  _557
REMARK  224  A    between atoms: _556  and  _559
REMARK  225  A    between atoms: _559  and  _560
REMARK  226  A    between atoms: _565  and  _567
REMARK  227  A    between atoms: _567  and  _568
REMARK  228  A    between atoms: _567  and  _570
REMARK  229  A    between atoms: _570  and  _571
REMARK  230  A    between atoms: _576  and  _578
REMARK  231  A    between atoms: _578  and  _579
REMARK  232  A    between atoms: _578  and  _581
REMARK  233  A    between atoms: _581  and  _582
REMARK  234  A    between atoms: _582  and  _583
REMARK  235  A    between atoms: _585  and  _587
REMARK  236  A    between atoms: _587  and  _588
REMARK  237  A    between atoms: _587  and  _590
REMARK  238  A    between atoms: _590  and  _591
REMARK  239  A    between atoms: _591  and  _592
REMARK  240  A    between atoms: _597  and  _599
REMARK  241  A    between atoms: _599  and  _600
REMARK  242  A    between atoms: _603  and  _605
REMARK  243  A    between atoms: _605  and  _606
REMARK  244  A    between atoms: _605  and  _608
REMARK  245  A    between atoms: _608  and  _609
REMARK  246  A    between atoms: _614  and  _616
REMARK  247  A    between atoms: _616  and  _617
REMARK  248  A    between atoms: _616  and  _619
REMARK  249  A    between atoms: _619  and  _620
REMARK  250  A    between atoms: _620  and  _621
REMARK  251  A    between atoms: _623  and  _625
REMARK  252  A    between atoms: _625  and  _626
REMARK  253  A    between atoms: _625  and  _628
REMARK  254  A    between atoms: _628  and  _629
REMARK  255  A    between atoms: _629  and  _630
REMARK  256  A    between atoms: _630  and  _631
REMARK  257  A    between atoms: _640  and  _642
REMARK  258  A    between atoms: _642  and  _643
REMARK  259  A    between atoms: _642  and  _645
REMARK  260  A    between atoms: _645  and  _646
REMARK  261  A    between atoms: _646  and  _647
REMARK  262  A    between atoms: _647  and  _648
REMARK  263  A    between atoms: _648  and  _649
REMARK  264  A    between atoms: _653  and  _655
REMARK  265  A    between atoms: _655  and  _656
REMARK  266  A    between atoms: _655  and  _658
REMARK  267  A    between atoms: _658  and  _659
REMARK  268  A    between atoms: _661  and  _663
REMARK  269  A    between atoms: _663  and  _664
REMARK  270  A    between atoms: _663  and  _666
REMARK  271  A    between atoms: _666  and  _667
REMARK  272  A    between atoms: _667  and  _668
REMARK  273  A    between atoms: _668  and  _669
REMARK  274  A    between atoms: _678  and  _680
REMARK  275  A    between atoms: _680  and  _681
REMARK  276  A    between atoms: _680  and  _683
REMARK  277  A    between atoms: _683  and  _684
REMARK  278  A    between atoms: _684  and  _685
REMARK  279  A    between atoms: _685  and  _686
REMARK  280  A    between atoms: _686  and  _687
REMARK  281  A    between atoms: _691  and  _693
REMARK  282  A    between atoms: _693  and  _694
REMARK  283  A    between atoms: _693  and  _696
REMARK  284  A    between atoms: _696  and  _697
REMARK  285  A    between atoms: _700  and  _702
REMARK  286  A    between atoms: _702  and  _703
REMARK  287  A    between atoms: _702  and  _705
REMARK  288  A    between atoms: _705  and  _706
REMARK                            x       y       z     vdW  Elec       q    Type
REMARK                         _______ _______ _______ _____ _____    ______ ____
ROOT
ATOM      1  CA  GLY A   1      26.266  29.655  52.277  0.00  0.00    +0.156 C 
ENDROOT
BRANCH   1   2
ATOM      2  N   GLY A   1      26.465  29.636  53.712  0.00  0.00    -0.238 NA
ATOM      3  H   GLY A   1      25.774  29.144  54.314  0.00  0.00    +0.142 HD
ENDBRANCH   1   2
BRANCH   1   4
ATOM      4  C   GLY A   1      26.133  31.082  51.782  0.00  0.00    +0.226 C 
ATOM      5  O   GLY A   1      26.864  31.506  50.888  0.00  0.00    -0.287 OA
ENDBRANCH   1   4
TORSDOF 2
REMARK  Name = ../refined-set-2016/3t6b/3t6b_pocket.pdb
REMARK  288 active torsions:
REMARK  status: ('A' for Active; 'I' for Inactive)
REMARK    1  A    between atoms: _1  and  _3
REMARK    2  A    between atoms: _3  and  _4
REMARK    3  A    between atoms: _6  and  _8
REMARK    4  A    between atoms: _8  and  _9
REMARK    5  A    between atoms: _8  and  _11
REMARK    6  A    between atoms: _11  and  _12
REMARK    7  A    between atoms: _14  and  _16
REMARK    8  A    between atoms: _16  and  _17
REMARK    9  A    between atoms: _16  and  _19
REMARK   10  A    between atoms: _19  and  _20
REMARK   11  A    between atoms: _23  and  _25
REMARK   12  A    between atoms: _25  and  _26
REMARK   13  A    between atoms: _25  and  _28
REMARK   14  A    between atoms: _28  and  _29
REMARK   15  A    between atoms: _31  and  _33
REMARK   16  A    between atoms: _33  and  _34
REMARK   17  A    between atoms: _33  and  _36
REMARK   18  A    between atoms: _36  and  _37
REMARK   19  A    between atoms: _43  and  _45
REMARK   20  A    between atoms: _45  and  _46
REMARK   21  A    between atoms: _45  and  _48
REMARK   22  A    between atoms: _48  and  _49
REMARK   23  A    between atoms: _54  and  _55
REMARK   24  A    between atoms: _57  and  _59
REMARK   25  A    between atoms: _59  and  _60
REMARK   26  A    between atoms: _59  and  _62
REMARK   27  A    between atoms: _62  and  _63
REMARK   28  A    between atoms: _66  and  _68
REMARK   29  A    between atoms: _68  and  _69
REMARK   30  A    between atoms: _68  and  _71
REMARK   31  A    between atoms: _71  and  _72
REMARK   32  A    between atoms: _72  and  _73
REMARK   33  A    between atoms: _76  and  _78
REMARK   34  A    between atoms: _78  and  _79
REMARK   35  A    between atoms: _78  and  _81
REMARK   36  A    between atoms: _81  and  _82
REMARK   37  A    between atoms: _84  and  _86
REMARK   38  A    between atoms: _86  and  _87
REMARK   39  A    between atoms: _86  and  _89
REMARK   40  A    between atoms: _89  and  _90
REMARK   41  A    between atoms: _95  and  _96
REMARK   42  A    between atoms: _98  and  _100
REMARK   43  A    between atoms: _100  and  _101
REMARK   44  A    between atoms: _100  and  _103
REMARK   45  A    between atoms: _103  and  _104
REMARK   46  A    between atoms: _104  and  _105
REMARK   47  A    between atoms: _108  and  _110
REMARK   48  A    between atoms: _110  and  _111
REMARK   49  A    between atoms: _110  and  _113
REMARK   50  A    between atoms: _113  and  _114
REMARK   51  A    between atoms: _120  and  _122
REMARK   52  A    between atoms: _122  and  _123
REMARK   53  A    between atoms: _122  and  _125
REMARK   54  A    between atoms: _125  and  _126
REMARK   55  A    between atoms: _128  and  _130
REMARK   56  A    between atoms: _130  and  _131
REMARK   57  A    between atoms: _133  and  _135
REMARK   58  A    between atoms: _135  and  _136
REMARK   59  A    between atoms: _135  and  _138
REMARK   60  A    between atoms: _138  and  _139
REMARK   61  A    between atoms: _143  and  _144
REMARK   62  A    between atoms: _149  and  _151
REMARK   63  A    between atoms: _151  and  _152
REMARK   64  A    between atoms: _155  and  _157
REMARK   65  A    between atoms: _157  and  _158
REMARK   66  A    between atoms: _160  and  _162
REMARK   67  A    between atoms: _162  and  _163
REMARK   68  A    between atoms: _162  and  _165
REMARK   69  A    between atoms: _165  and  _166
REMARK   70  A    between atoms: _169  and  _171
REMARK   71  A    between atoms: _171  and  _172
REMARK   72  A    between atoms: _171  and  _174
REMARK   73  A    between atoms: _174  and  _175
REMARK   74  A    between atoms: _180  and  _182
REMARK   75  A    between atoms: _182  and  _183
REMARK   76  A    between atoms: _182  and  _185
REMARK   77  A    between atoms: _185  and  _186
REMARK   78  A    between atoms: _190  and  _191
REMARK   79  A    between atoms: _196  and  _198
REMARK   80  A    between atoms: _198  and  _199
REMARK   81  A    between atoms: _198  and  _201
REMARK   82  A    between atoms: _201  and  _202
REMARK   83  A    between atoms: _207  and  _209
REMARK   84  A    between atoms: _209  and  _210
REMARK   85  A    between atoms: _209  and  _212
REMARK   86  A    between atoms: _212  and  _213
REMARK   87  A    between atoms: _218  and  _219
REMARK   88  A    between atoms: _221  and  _223
REMARK   89  A    between atoms: _223  and  _224
REMARK   90  A    between atoms: _223  and  _226
REMARK   91  A    between atoms: _226  and  _227
REMARK   92  A    between atoms: _230  and  _232
REMARK   93  A    between atoms: _232  and  _233
REMARK   94  A    between atoms: _232  and  _235
REMARK   95  A    between atoms: _235  and  _236
REMARK   96  A    between atoms: _236  and  _237
REMARK   97  A    between atoms: _237  and  _238
REMARK   98  A    between atoms: _247  and  _249
REMARK   99  A    between atoms: _249  and  _250
REMARK  100  A    between atoms: _249  and  _252
REMARK  101  A    between atoms: _252  and  _253
REMARK  102  A    between atoms: _253  and  _254
REMARK  103  A    between atoms: _254  and  _255
REMARK  104  A    between atoms: _255  and  _256
REMARK  105  A    between atoms: _260  and  _262
REMARK  106  A    between atoms: _262  and  _263
REMARK  107  A    between atoms: _262  and  _265
REMARK  108  A    between atoms: _265  and  _266
REMARK  109  A    between atoms: _271  and  _273
REMARK  110  A    between atoms: _273  and  _274
REMARK  111  A    between atoms: _273  and  _276
REMARK  112  A    between atoms: _279  and  _281
REMARK  113  A    between atoms: _281  and  _282
REMARK  114  A    between atoms: _281  and  _284
REMARK  115  A    between atoms: _284  and  _285
REMARK  116  A    between atoms: _288  and  _290
REMARK  117  A    between atoms: _290  and  _291
REMARK  118  A    between atoms: _290  and  _293
REMARK  119  A    between atoms: _296  and  _298
REMARK  120  A    between atoms: _298  and  _299
REMARK  121  A    between atoms: _298  and  _301
REMARK  122  A    between atoms: _301  and  _302
REMARK  123  A    between atoms: _305  and  _307
REMARK  124  A    between atoms: _307  and  _308
REMARK  125  A    between atoms: _311  and  _313
REMARK  126  A    between atoms: _313  and  _314
REMARK  127  A    between atoms: _313  and  _316
REMARK  128  A    between atoms: _319  and  _321
REMARK  129  A    between atoms: _321  and  _322
REMARK  130  A    between atoms: _325  and  _327
REMARK  131  A    between atoms: _327  and  _328
REMARK  132  A    between atoms: _331  and  _333
REMARK  133  A    between atoms: _333  and  _334
REMARK  134  A    between atoms: _333  and  _336
REMARK  135  A    between atoms: _336  and  _337
REMARK  136  A    between atoms: _342  and  _343
REMARK  137  A    between atoms: _345  and  _347
REMARK  138  A    between atoms: _347  and  _348
REMARK  139  A    between atoms: _347  and  _350
REMARK  140  A    between atoms: _350  and  _351
REMARK  141  A    between atoms: _351  and  _352
REMARK  142  A    between atoms: _352  and  _353
REMARK  143  A    between atoms: _353  and  _354
REMARK  144  A    between atoms: _358  and  _360
REMARK  145  A    between atoms: _360  and  _361
REMARK  146  A    between atoms: _360  and  _363
REMARK  147  A    between atoms: _363  and  _364
REMARK  148  A    between atoms: _366  and  _368
REMARK  149  A    between atoms: _368  and  _369
REMARK  150  A    between atoms: _368  and  _371
REMARK  151  A    between atoms: _371  and  _372
REMARK  152  A    between atoms: _378  and  _380
REMARK  153  A    between atoms: _380  and  _381
REMARK  154  A    between atoms: _380  and  _383
REMARK  155  A    between atoms: _383  and  _384
REMARK  156  A    between atoms: _387  and  _389
REMARK  157  A    between atoms: _389  and  _390
REMARK  158  A    between atoms: _389  and  _392
REMARK  159  A    between atoms: _395  and  _397
REMARK  160  A    between atoms: _397  and  _398
REMARK  161  A    between atoms: _397  and  _400
REMARK  162  A    between atoms: _400  and  _401
REMARK  163  A    between atoms: _401  and  _402
REMARK  164  A    between atoms: _407  and  _409
REMARK  165  A    between atoms: _409  and  _410
REMARK  166  A    between atoms: _409  and  _412
REMARK  167  A    between atoms: _415  and  _417
REMARK  168  A    between atoms: _417  and  _418
REMARK  169  A    between atoms: _420  and  _422
REMARK  170  A    between atoms: _422  and  _423
REMARK  171  A    between atoms: _422  and  _425
REMARK  172  A    between atoms: _425  and  _426
REMARK  173  A    between atoms: _429  and  _431
REMARK  174  A    between atoms: _431  and  _432
REMARK  175  A    between atoms: _431  and  _434
REMARK  176  A    between atoms: _434  and  _435
REMARK  177  A    between atoms: _440  and  _442
REMARK  178  A    between atoms: _442  and  _443
REMARK  179  A    between atoms: _446  and  _448
REMARK  180  A    between atoms: _448  and  _449
REMARK  181  A    between atoms: _448  and  _451
REMARK  182  A    between atoms: _451  and  _452
REMARK  183  A    between atoms: _457  and  _459
REMARK  184  A    between atoms: _459  and  _460
REMARK  185  A    between atoms: _459  and  _462
REMARK  186  A    between atoms: _462  and  _463
REMARK  187  A    between atoms: _473  and  _475
REMARK  188  A    between atoms: _475  and  _476
REMARK  189  A    between atoms: _475  and  _478
REMARK  190  A    between atoms: _478  and  _479
REMARK  191  A    between atoms: _482  and  _484
REMARK  192  A    between atoms: _484  and  _485
REMARK  193  A    between atoms: _488  and  _490
REMARK  194  A    between atoms: _490  and  _491
REMARK  195  A    between atoms: _490  and  _493
REMARK  196  A    between atoms: _493  and  _494
REMARK  197  A    between atoms: _496  and  _498
REMARK  198  A    between atoms: _498  and  _499
REMARK  199  A    between atoms: _498  and  _501
REMARK  200  A    between atoms: _501  and  _502
REMARK  201  A    between atoms: _502  and  _503
REMARK  202  A    between atoms: _506  and  _508
REMARK  203  A    between atoms: _508  and  _509
REMARK  204  A    between atoms: _508  and  _511
REMARK  205  A    between atoms: _511  and  _512
REMARK  206  A    between atoms: _512  and  _513
REMARK  207  A    between atoms: _516  and  _518
REMARK  208  A    between atoms: _518  and  _519
REMARK  209  A    between atoms: _518  and  _521
REMARK  210  A    between atoms: _521  and  _522
REMARK  211  A    between atoms: _522  and  _523
REMARK  212  A    between atoms: _523  and  _524
REMARK  213  A    between atoms: _533  and  _535
REMARK  214  A    between atoms: _535  and  _536
REMARK  215  A    between atoms: _539  and  _541
REMARK  216  A    between atoms: _541  and  _542
REMARK  217  A    between atoms: _541  and  _544
REMARK  218  A    between atoms: _544  and  _545
REMARK  219  A    between atoms: _545  and  _546
REMARK  220  A    between atoms: _549  and  _551
REMARK  221  A    between atoms: _551  and  _552
REMARK  222  A    between atoms: _554  and  _556
REMARK  223  A    between atoms: _556  and  _557
REMARK  224  A    between atoms: _556  and  _559
REMARK  225  A    between atoms: _559  and  _560
REMARK  226  A    between atoms: _565  and  _567
REMARK  227  A    between atoms: _567  and  _568
REMARK  228  A    between atoms: _567  and  _570
REMARK  229  A    between atoms: _570  and  _571
REMARK  230  A    between atoms: _576  and  _578
REMARK  231  A    between atoms: _578  and  _579
REMARK  232  A    between atoms: _578  and  _581
REMARK  233  A    between atoms: _581  and  _582
REMARK  234  A    between atoms: _582  and  _583
REMARK  235  A    between atoms: _585  and  _587
REMARK  236  A    between atoms: _587  and  _588
REMARK  237  A    between atoms: _587  and  _590
REMARK  238  A    between atoms: _590  and  _591
REMARK  239  A    between atoms: _591  and  _592
REMARK  240  A    between atoms: _597  and  _599
REMARK  241  A    between atoms: _599  and  _600
REMARK  242  A    between atoms: _603  and  _605
REMARK  243  A    between atoms: _605  and  _606
REMARK  244  A    between atoms: _605  and  _608
REMARK  245  A    between atoms: _608  and  _609
REMARK  246  A    between atoms: _614  and  _616
REMARK  247  A    between atoms: _616  and  _617
REMARK  248  A    between atoms: _616  and  _619
REMARK  249  A    between atoms: _619  and  _620
REMARK  250  A    between atoms: _620  and  _621
REMARK  251  A    between atoms: _623  and  _625
REMARK  252  A    between atoms: _625  and  _626
REMARK  253  A    between atoms: _625  and  _628
REMARK  254  A    between atoms: _628  and  _629
REMARK  255  A    between atoms: _629  and  _630
REMARK  256  A    between atoms: _630  and  _631
REMARK  257  A    between atoms: _640  and  _642
REMARK  258  A    between atoms: _642  and  _643
REMARK  259  A    between atoms: _642  and  _645
REMARK  260  A    between atoms: _645  and  _646
REMARK  261  A    between atoms: _646  and  _647
REMARK  262  A    between atoms: _647  and  _648
REMARK  263  A    between atoms: _648  and  _649
REMARK  264  A    between atoms: _653  and  _655
REMARK  265  A    between atoms: _655  and  _656
REMARK  266  A    between atoms: _655  and  _658
REMARK  267  A    between atoms: _658  and  _659
REMARK  268  A    between atoms: _661  and  _663
REMARK  269  A    between atoms: _663  and  _664
REMARK  270  A    between atoms: _663  and  _666
REMARK  271  A    between atoms: _666  and  _667
REMARK  272  A    between atoms: _667  and  _668
REMARK  273  A    between atoms: _668  and  _669
REMARK  274  A    between atoms: _678  and  _680
REMARK  275  A    between atoms: _680  and  _681
REMARK  276  A    between atoms: _680  and  _683
REMARK  277  A    between atoms: _683  and  _684
REMARK  278  A    between atoms: _684  and  _685
REMARK  279  A    between atoms: _685  and  _686
REMARK  280  A    between atoms: _686  and  _687
REMARK  281  A    between atoms: _691  and  _693
REMARK  282  A    between atoms: _693  and  _694
REMARK  283  A    between atoms: _693  and  _696
REMARK  284  A    between atoms: _696  and  _697
REMARK  285  A    between atoms: _700  and  _702
REMARK  286  A    between atoms: _702  and  _703
REMARK  287  A    between atoms: _702  and  _705
REMARK  288  A    between atoms: _705  and  _706
REMARK                            x       y       z     vdW  Elec       q    Type
REMARK                         _______ _______ _______ _____ _____    ______ ____
ROOT
ATOM      1  CB  ASN A   1      22.507  33.591  46.339  0.00  0.00    +0.110 C 
ENDROOT
BRANCH   1   2
ATOM      2  CG  ASN A   1      22.674  32.355  47.229  0.00  0.00    +0.221 C 
ATOM      3  ND2 ASN A   1      23.684  32.378  48.095  0.00  0.00    -0.329 N 
ATOM      4 HD21 ASN A   1      23.845  31.568  48.728  0.00  0.00    +0.145 HD
ATOM      5 HD22 ASN A   1      24.312  33.206  48.139  0.00  0.00    +0.145 HD
ATOM      6  OD1 ASN A   1      21.901  31.397  47.138  0.00  0.00    -0.275 OA
ENDBRANCH   1   2
BRANCH   1   7
ATOM      7  CA  ASN A   1      21.039  33.890  46.010  0.00  0.00    +0.142 C 
BRANCH   7   8
ATOM      8  N   ASN A   1      20.918  34.799  44.874  0.00  0.00    -0.239 NA
ATOM      9  H   ASN A   1      21.770  35.140  44.385  0.00  0.00    +0.142 HD
ENDBRANCH   7   8
BRANCH   7  10
ATOM     10  C   ASN A   1      20.334  34.497  47.221  0.00  0.00    +0.225 C 
ATOM     11  O   ASN A   1      19.569  33.825  47.919  0.00  0.00    -0.287 OA
ENDBRANCH   7  10
ENDBRANCH   1   7
TORSDOF 4
REMARK  Name = ../refined-set-2016/3t6b/3t6b_pocket.pdb
REMARK  288 active torsions:
REMARK  status: ('A' for Active; 'I' for Inactive)
REMARK    1  A    between atoms: _1  and  _3
REMARK    2  A    between atoms: _3  and  _4
REMARK    3  A    between atoms: _6  and  _8
REMARK    4  A    between atoms: _8  and  _9
REMARK    5  A    between atoms: _8  and  _11
REMARK    6  A    between atoms: _11  and  _12
REMARK    7  A    between atoms: _14  and  _16
REMARK    8  A    between atoms: _16  and  _17
REMARK    9  A    between atoms: _16  and  _19
REMARK   10  A    between atoms: _19  and  _20
REMARK   11  A    between atoms: _23  and  _25
REMARK   12  A    between atoms: _25  and  _26
REMARK   13  A    between atoms: _25  and  _28
REMARK   14  A    between atoms: _28  and  _29
REMARK   15  A    between atoms: _31  and  _33
REMARK   16  A    between atoms: _33  and  _34
REMARK   17  A    between atoms: _33  and  _36
REMARK   18  A    between atoms: _36  and  _37
REMARK   19  A    between atoms: _43  and  _45
REMARK   20  A    between atoms: _45  and  _46
REMARK   21  A    between atoms: _45  and  _48
REMARK   22  A    between atoms: _48  and  _49
REMARK   23  A    between atoms: _54  and  _55
REMARK   24  A    between atoms: _57  and  _59
REMARK   25  A    between atoms: _59  and  _60
REMARK   26  A    between atoms: _59  and  _62
REMARK   27  A    between atoms: _62  and  _63
REMARK   28  A    between atoms: _66  and  _68
REMARK   29  A    between atoms: _68  and  _69
REMARK   30  A    between atoms: _68  and  _71
REMARK   31  A    between atoms: _71  and  _72
REMARK   32  A    between atoms: _72  and  _73
REMARK   33  A    between atoms: _76  and  _78
REMARK   34  A    between atoms: _78  and  _79
REMARK   35  A    between atoms: _78  and  _81
REMARK   36  A    between atoms: _81  and  _82
REMARK   37  A    between atoms: _84  and  _86
REMARK   38  A    between atoms: _86  and  _87
REMARK   39  A    between atoms: _86  and  _89
REMARK   40  A    between atoms: _89  and  _90
REMARK   41  A    between atoms: _95  and  _96
REMARK   42  A    between atoms: _98  and  _100
REMARK   43  A    between atoms: _100  and  _101
REMARK   44  A    between atoms: _100  and  _103
REMARK   45  A    between atoms: _103  and  _104
REMARK   46  A    between atoms: _104  and  _105
REMARK   47  A    between atoms: _108  and  _110
REMARK   48  A    between atoms: _110  and  _111
REMARK   49  A    between atoms: _110  and  _113
REMARK   50  A    between atoms: _113  and  _114
REMARK   51  A    between atoms: _120  and  _122
REMARK   52  A    between atoms: _122  and  _123
REMARK   53  A    between atoms: _122  and  _125
REMARK   54  A    between atoms: _125  and  _126
REMARK   55  A    between atoms: _128  and  _130
REMARK   56  A    between atoms: _130  and  _131
REMARK   57  A    between atoms: _133  and  _135
REMARK   58  A    between atoms: _135  and  _136
REMARK   59  A    between atoms: _135  and  _138
REMARK   60  A    between atoms: _138  and  _139
REMARK   61  A    between atoms: _143  and  _144
REMARK   62  A    between atoms: _149  and  _151
REMARK   63  A    between atoms: _151  and  _152
REMARK   64  A    between atoms: _155  and  _157
REMARK   65  A    between atoms: _157  and  _158
REMARK   66  A    between atoms: _160  and  _162
REMARK   67  A    between atoms: _162  and  _163
REMARK   68  A    between atoms: _162  and  _165
REMARK   69  A    between atoms: _165  and  _166
REMARK   70  A    between atoms: _169  and  _171
REMARK   71  A    between atoms: _171  and  _172
REMARK   72  A    between atoms: _171  and  _174
REMARK   73  A    between atoms: _174  and  _175
REMARK   74  A    between atoms: _180  and  _182
REMARK   75  A    between atoms: _182  and  _183
REMARK   76  A    between atoms: _182  and  _185
REMARK   77  A    between atoms: _185  and  _186
REMARK   78  A    between atoms: _190  and  _191
REMARK   79  A    between atoms: _196  and  _198
REMARK   80  A    between atoms: _198  and  _199
REMARK   81  A    between atoms: _198  and  _201
REMARK   82  A    between atoms: _201  and  _202
REMARK   83  A    between atoms: _207  and  _209
REMARK   84  A    between atoms: _209  and  _210
REMARK   85  A    between atoms: _209  and  _212
REMARK   86  A    between atoms: _212  and  _213
REMARK   87  A    between atoms: _218  and  _219
REMARK   88  A    between atoms: _221  and  _223
REMARK   89  A    between atoms: _223  and  _224
REMARK   90  A    between atoms: _223  and  _226
REMARK   91  A    between atoms: _226  and  _227
REMARK   92  A    between atoms: _230  and  _232
REMARK   93  A    between atoms: _232  and  _233
REMARK   94  A    between atoms: _232  and  _235
REMARK   95  A    between atoms: _235  and  _236
REMARK   96  A    between atoms: _236  and  _237
REMARK   97  A    between atoms: _237  and  _238
REMARK   98  A    between atoms: _247  and  _249
REMARK   99  A    between atoms: _249  and  _250
REMARK  100  A    between atoms: _249  and  _252
REMARK  101  A    between atoms: _252  and  _253
REMARK  102  A    between atoms: _253  and  _254
REMARK  103  A    between atoms: _254  and  _255
REMARK  104  A    between atoms: _255  and  _256
REMARK  105  A    between atoms: _260  and  _262
REMARK  106  A    between atoms: _262  and  _263
REMARK  107  A    between atoms: _262  and  _265
REMARK  108  A    between atoms: _265  and  _266
REMARK  109  A    between atoms: _271  and  _273
REMARK  110  A    between atoms: _273  and  _274
REMARK  111  A    between atoms: _273  and  _276
REMARK  112  A    between atoms: _279  and  _281
REMARK  113  A    between atoms: _281  and  _282
REMARK  114  A    between atoms: _281  and  _284
REMARK  115  A    between atoms: _284  and  _285
REMARK  116  A    between atoms: _288  and  _290
REMARK  117  A    between atoms: _290  and  _291
REMARK  118  A    between atoms: _290  and  _293
REMARK  119  A    between atoms: _296  and  _298
REMARK  120  A    between atoms: _298  and  _299
REMARK  121  A    between atoms: _298  and  _301
REMARK  122  A    between atoms: _301  and  _302
REMARK  123  A    between atoms: _305  and  _307
REMARK  124  A    between atoms: _307  and  _308
REMARK  125  A    between atoms: _311  and  _313
REMARK  126  A    between atoms: _313  and  _314
REMARK  127  A    between atoms: _313  and  _316
REMARK  128  A    between atoms: _319  and  _321
REMARK  129  A    between atoms: _321  and  _322
REMARK  130  A    between atoms: _325  and  _327
REMARK  131  A    between atoms: _327  and  _328
REMARK  132  A    between atoms: _331  and  _333
REMARK  133  A    between atoms: _333  and  _334
REMARK  134  A    between atoms: _333  and  _336
REMARK  135  A    between atoms: _336  and  _337
REMARK  136  A    between atoms: _342  and  _343
REMARK  137  A    between atoms: _345  and  _347
REMARK  138  A    between atoms: _347  and  _348
REMARK  139  A    between atoms: _347  and  _350
REMARK  140  A    between atoms: _350  and  _351
REMARK  141  A    between atoms: _351  and  _352
REMARK  142  A    between atoms: _352  and  _353
REMARK  143  A    between atoms: _353  and  _354
REMARK  144  A    between atoms: _358  and  _360
REMARK  145  A    between atoms: _360  and  _361
REMARK  146  A    between atoms: _360  and  _363
REMARK  147  A    between atoms: _363  and  _364
REMARK  148  A    between atoms: _366  and  _368
REMARK  149  A    between atoms: _368  and  _369
REMARK  150  A    between atoms: _368  and  _371
REMARK  151  A    between atoms: _371  and  _372
REMARK  152  A    between atoms: _378  and  _380
REMARK  153  A    between atoms: _380  and  _381
REMARK  154  A    between atoms: _380  and  _383
REMARK  155  A    between atoms: _383  and  _384
REMARK  156  A    between atoms: _387  and  _389
REMARK  157  A    between atoms: _389  and  _390
REMARK  158  A    between atoms: _389  and  _392
REMARK  159  A    between atoms: _395  and  _397
REMARK  160  A    between atoms: _397  and  _398
REMARK  161  A    between atoms: _397  and  _400
REMARK  162  A    between atoms: _400  and  _401
REMARK  163  A    between atoms: _401  and  _402
REMARK  164  A    between atoms: _407  and  _409
REMARK  165  A    between atoms: _409  and  _410
REMARK  166  A    between atoms: _409  and  _412
REMARK  167  A    between atoms: _415  and  _417
REMARK  168  A    between atoms: _417  and  _418
REMARK  169  A    between atoms: _420  and  _422
REMARK  170  A    between atoms: _422  and  _423
REMARK  171  A    between atoms: _422  and  _425
REMARK  172  A    between atoms: _425  and  _426
REMARK  173  A    between atoms: _429  and  _431
REMARK  174  A    between atoms: _431  and  _432
REMARK  175  A    between atoms: _431  and  _434
REMARK  176  A    between atoms: _434  and  _435
REMARK  177  A    between atoms: _440  and  _442
REMARK  178  A    between atoms: _442  and  _443
REMARK  179  A    between atoms: _446  and  _448
REMARK  180  A    between atoms: _448  and  _449
REMARK  181  A    between atoms: _448  and  _451
REMARK  182  A    between atoms: _451  and  _452
REMARK  183  A    between atoms: _457  and  _459
REMARK  184  A    between atoms: _459  and  _460
REMARK  185  A    between atoms: _459  and  _462
REMARK  186  A    between atoms: _462  and  _463
REMARK  187  A    between atoms: _473  and  _475
REMARK  188  A    between atoms: _475  and  _476
REMARK  189  A    between atoms: _475  and  _478
REMARK  190  A    between atoms: _478  and  _479
REMARK  191  A    between atoms: _482  and  _484
REMARK  192  A    between atoms: _484  and  _485
REMARK  193  A    between atoms: _488  and  _490
REMARK  194  A    between atoms: _490  and  _491
REMARK  195  A    between atoms: _490  and  _493
REMARK  196  A    between atoms: _493  and  _494
REMARK  197  A    between atoms: _496  and  _498
REMARK  198  A    between atoms: _498  and  _499
REMARK  199  A    between atoms: _498  and  _501
REMARK  200  A    between atoms: _501  and  _502
REMARK  201  A    between atoms: _502  and  _503
REMARK  202  A    between atoms: _506  and  _508
REMARK  203  A    between atoms: _508  and  _509
REMARK  204  A    between atoms: _508  and  _511
REMARK  205  A    between atoms: _511  and  _512
REMARK  206  A    between atoms: _512  and  _513
REMARK  207  A    between atoms: _516  and  _518
REMARK  208  A    between atoms: _518  and  _519
REMARK  209  A    between atoms: _518  and  _521
REMARK  210  A    between atoms: _521  and  _522
REMARK  211  A    between atoms: _522  and  _523
REMARK  212  A    between atoms: _523  and  _524
REMARK  213  A    between atoms: _533  and  _535
REMARK  214  A    between atoms: _535  and  _536
REMARK  215  A    between atoms: _539  and  _541
REMARK  216  A    between atoms: _541  and  _542
REMARK  217  A    between atoms: _541  and  _544
REMARK  218  A    between atoms: _544  and  _545
REMARK  219  A    between atoms: _545  and  _546
REMARK  220  A    between atoms: _549  and  _551
REMARK  221  A    between atoms: _551  and  _552
REMARK  222  A    between atoms: _554  and  _556
REMARK  223  A    between atoms: _556  and  _557
REMARK  224  A    between atoms: _556  and  _559
REMARK  225  A    between atoms: _559  and  _560
REMARK  226  A    between atoms: _565  and  _567
REMARK  227  A    between atoms: _567  and  _568
REMARK  228  A    between atoms: _567  and  _570
REMARK  229  A    between atoms: _570  and  _571
REMARK  230  A    between atoms: _576  and  _578
REMARK  231  A    between atoms: _578  and  _579
REMARK  232  A    between atoms: _578  and  _581
REMARK  233  A    between atoms: _581  and  _582
REMARK  234  A    between atoms: _582  and  _583
REMARK  235  A    between atoms: _585  and  _587
REMARK  236  A    between atoms: _587  and  _588
REMARK  237  A    between atoms: _587  and  _590
REMARK  238  A    between atoms: _590  and  _591
REMARK  239  A    between atoms: _591  and  _592
REMARK  240  A    between atoms: _597  and  _599
REMARK  241  A    between atoms: _599  and  _600
REMARK  242  A    between atoms: _603  and  _605
REMARK  243  A    between atoms: _605  and  _606
REMARK  244  A    between atoms: _605  and  _608
REMARK  245  A    between atoms: _608  and  _609
REMARK  246  A    between atoms: _614  and  _616
REMARK  247  A    between atoms: _616  and  _617
REMARK  248  A    between atoms: _616  and  _619
REMARK  249  A    between atoms: _619  and  _620
REMARK  250  A    between atoms: _620  and  _621
REMARK  251  A    between atoms: _623  and  _625
REMARK  252  A    between atoms: _625  and  _626
REMARK  253  A    between atoms: _625  and  _628
REMARK  254  A    between atoms: _628  and  _629
REMARK  255  A    between atoms: _629  and  _630
REMARK  256  A    between atoms: _630  and  _631
REMARK  257  A    between atoms: _640  and  _642
REMARK  258  A    between atoms: _642  and  _643
REMARK  259  A    between atoms: _642  and  _645
REMARK  260  A    between atoms: _645  and  _646
REMARK  261  A    between atoms: _646  and  _647
REMARK  262  A    between atoms: _647  and  _648
REMARK  263  A    between atoms: _648  and  _649
REMARK  264  A    between atoms: _653  and  _655
REMARK  265  A    between atoms: _655  and  _656
REMARK  266  A    between atoms: _655  and  _658
REMARK  267  A    between atoms: _658  and  _659
REMARK  268  A    between atoms: _661  and  _663
REMARK  269  A    between atoms: _663  and  _664
REMARK  270  A    between atoms: _663  and  _666
REMARK  271  A    between atoms: _666  and  _667
REMARK  272  A    between atoms: _667  and  _668
REMARK  273  A    between atoms: _668  and  _669
REMARK  274  A    between atoms: _678  and  _680
REMARK  275  A    between atoms: _680  and  _681
REMARK  276  A    between atoms: _680  and  _683
REMARK  277  A    between atoms: _683  and  _684
REMARK  278  A    between atoms: _684  and  _685
REMARK  279  A    between atoms: _685  and  _686
REMARK  280  A    between atoms: _686  and  _687
REMARK  281  A    between atoms: _691  and  _693
REMARK  282  A    between atoms: _693  and  _694
REMARK  283  A    between atoms: _693  and  _696
REMARK  284  A    between atoms: _696  and  _697
REMARK  285  A    between atoms: _700  and  _702
REMARK  286  A    between atoms: _702  and  _703
REMARK  287  A    between atoms: _702  and  _705
REMARK  288  A    between atoms: _705  and  _706
REMARK                            x       y       z     vdW  Elec       q    Type
REMARK                         _______ _______ _______ _____ _____    ______ ____
ROOT
ATOM      1  C   ASN A   1      15.802  33.279  48.196  0.00  0.00    +0.239 C 
ATOM      2  N   MET A   2      16.733  33.665  49.063  0.00  0.00    -0.298 N 
ATOM      3  H   MET A   2      17.565  34.187  48.722  0.00  0.00    +0.150 HD
ATOM      4  O   ASN A   1      14.782  32.689  48.539  0.00  0.00    -0.274 OA
ENDROOT
BRANCH   1   5
ATOM      5  CA  ASN A   1      16.051  33.611  46.725  0.00  0.00    +0.154 C 
BRANCH   5   6
ATOM      6  N   ASN A   1      16.607  34.944  46.558  0.00  0.00    -0.238 NA
ATOM      7  H   ASN A   1      17.540  35.050  46.112  0.00  0.00    +0.142 HD
ENDBRANCH   5   6
BRANCH   5   8
ATOM      8  CB  ASN A   1      16.979  32.572  46.095  0.00  0.00    +0.111 C 
BRANCH   8   9
ATOM      9  CG  ASN A   1      16.489  31.162  46.298  0.00  0.00    +0.221 C 
ATOM     10  ND2 ASN A   1      17.176  30.410  47.154  0.00  0.00    -0.329 N 
ATOM     11 HD21 ASN A   1      18.006  30.803  47.641  0.00  0.00    +0.145 HD
ATOM     12 HD22 ASN A   1      16.883  29.429  47.336  0.00  0.00    +0.145 HD
ATOM     13  OD1 ASN A   1      15.501  30.750  45.695  0.00  0.00    -0.275 OA
ENDBRANCH   8   9
ENDBRANCH   5   8
ENDBRANCH   1   5
BRANCH   2  14
ATOM     14  CA  MET A   2      16.605  33.368  50.484  0.00  0.00    +0.138 C 
BRANCH  14  15
ATOM     15  C   MET A   2      15.472  34.148  51.139  0.00  0.00    +0.227 C 
ATOM     16  O   MET A   2      14.665  33.578  51.878  0.00  0.00    -0.286 OA
ENDBRANCH  14  15
BRANCH  14  17
ATOM     17  CB  MET A   2      17.908  33.649  51.224  0.00  0.00    +0.039 C 
BRANCH  17  18
ATOM     18  CG  MET A   2      17.749  33.637  52.736  0.00  0.00    +0.060 C 
BRANCH  18  19
ATOM     19  SD  MET A   2      17.316  32.001  53.349  0.00  0.00    -0.139 S 
ATOM     20  CE  MET A   2      18.686  31.064  52.667  0.00  0.00    +0.069 C 
ENDBRANCH  18  19
ENDBRANCH  17  18
ENDBRANCH  14  17
ENDBRANCH   2  14
TORSDOF 9
REMARK  Name = ../refined-set-2016/3t6b/3t6b_pocket.pdb
REMARK  288 active torsions:
REMARK  status: ('A' for Active; 'I' for Inactive)
REMARK    1  A    between atoms: _1  and  _3
REMARK    2  A    between atoms: _3  and  _4
REMARK    3  A    between atoms: _6  and  _8
REMARK    4  A    between atoms: _8  and  _9
REMARK    5  A    between atoms: _8  and  _11
REMARK    6  A    between atoms: _11  and  _12
REMARK    7  A    between atoms: _14  and  _16
REMARK    8  A    between atoms: _16  and  _17
REMARK    9  A    between atoms: _16  and  _19
REMARK   10  A    between atoms: _19  and  _20
REMARK   11  A    between atoms: _23  and  _25
REMARK   12  A    between atoms: _25  and  _26
REMARK   13  A    between atoms: _25  and  _28
REMARK   14  A    between atoms: _28  and  _29
REMARK   15  A    between atoms: _31  and  _33
REMARK   16  A    between atoms: _33  and  _34
REMARK   17  A    between atoms: _33  and  _36
REMARK   18  A    between atoms: _36  and  _37
REMARK   19  A    between atoms: _43  and  _45
REMARK   20  A    between atoms: _45  and  _46
REMARK   21  A    between atoms: _45  and  _48
REMARK   22  A    between atoms: _48  and  _49
REMARK   23  A    between atoms: _54  and  _55
REMARK   24  A    between atoms: _57  and  _59
REMARK   25  A    between atoms: _59  and  _60
REMARK   26  A    between atoms: _59  and  _62
REMARK   27  A    between atoms: _62  and  _63
REMARK   28  A    between atoms: _66  and  _68
REMARK   29  A    between atoms: _68  and  _69
REMARK   30  A    between atoms: _68  and  _71
REMARK   31  A    between atoms: _71  and  _72
REMARK   32  A    between atoms: _72  and  _73
REMARK   33  A    between atoms: _76  and  _78
REMARK   34  A    between atoms: _78  and  _79
REMARK   35  A    between atoms: _78  and  _81
REMARK   36  A    between atoms: _81  and  _82
REMARK   37  A    between atoms: _84  and  _86
REMARK   38  A    between atoms: _86  and  _87
REMARK   39  A    between atoms: _86  and  _89
REMARK   40  A    between atoms: _89  and  _90
REMARK   41  A    between atoms: _95  and  _96
REMARK   42  A    between atoms: _98  and  _100
REMARK   43  A    between atoms: _100  and  _101
REMARK   44  A    between atoms: _100  and  _103
REMARK   45  A    between atoms: _103  and  _104
REMARK   46  A    between atoms: _104  and  _105
REMARK   47  A    between atoms: _108  and  _110
REMARK   48  A    between atoms: _110  and  _111
REMARK   49  A    between atoms: _110  and  _113
REMARK   50  A    between atoms: _113  and  _114
REMARK   51  A    between atoms: _120  and  _122
REMARK   52  A    between atoms: _122  and  _123
REMARK   53  A    between atoms: _122  and  _125
REMARK   54  A    between atoms: _125  and  _126
REMARK   55  A    between atoms: _128  and  _130
REMARK   56  A    between atoms: _130  and  _131
REMARK   57  A    between atoms: _133  and  _135
REMARK   58  A    between atoms: _135  and  _136
REMARK   59  A    between atoms: _135  and  _138
REMARK   60  A    between atoms: _138  and  _139
REMARK   61  A    between atoms: _143  and  _144
REMARK   62  A    between atoms: _149  and  _151
REMARK   63  A    between atoms: _151  and  _152
REMARK   64  A    between atoms: _155  and  _157
REMARK   65  A    between atoms: _157  and  _158
REMARK   66  A    between atoms: _160  and  _162
REMARK   67  A    between atoms: _162  and  _163
REMARK   68  A    between atoms: _162  and  _165
REMARK   69  A    between atoms: _165  and  _166
REMARK   70  A    between atoms: _169  and  _171
REMARK   71  A    between atoms: _171  and  _172
REMARK   72  A    between atoms: _171  and  _174
REMARK   73  A    between atoms: _174  and  _175
REMARK   74  A    between atoms: _180  and  _182
REMARK   75  A    between atoms: _182  and  _183
REMARK   76  A    between atoms: _182  and  _185
REMARK   77  A    between atoms: _185  and  _186
REMARK   78  A    between atoms: _190  and  _191
REMARK   79  A    between atoms: _196  and  _198
REMARK   80  A    between atoms: _198  and  _199
REMARK   81  A    between atoms: _198  and  _201
REMARK   82  A    between atoms: _201  and  _202
REMARK   83  A    between atoms: _207  and  _209
REMARK   84  A    between atoms: _209  and  _210
REMARK   85  A    between atoms: _209  and  _212
REMARK   86  A    between atoms: _212  and  _213
REMARK   87  A    between atoms: _218  and  _219
REMARK   88  A    between atoms: _221  and  _223
REMARK   89  A    between atoms: _223  and  _224
REMARK   90  A    between atoms: _223  and  _226
REMARK   91  A    between atoms: _226  and  _227
REMARK   92  A    between atoms: _230  and  _232
REMARK   93  A    between atoms: _232  and  _233
REMARK   94  A    between atoms: _232  and  _235
REMARK   95  A    between atoms: _235  and  _236
REMARK   96  A    between atoms: _236  and  _237
REMARK   97  A    between atoms: _237  and  _238
REMARK   98  A    between atoms: _247  and  _249
REMARK   99  A    between atoms: _249  and  _250
REMARK  100  A    between atoms: _249  and  _252
REMARK  101  A    between atoms: _252  and  _253
REMARK  102  A    between atoms: _253  and  _254
REMARK  103  A    between atoms: _254  and  _255
REMARK  104  A    between atoms: _255  and  _256
REMARK  105  A    between atoms: _260  and  _262
REMARK  106  A    between atoms: _262  and  _263
REMARK  107  A    between atoms: _262  and  _265
REMARK  108  A    between atoms: _265  and  _266
REMARK  109  A    between atoms: _271  and  _273
REMARK  110  A    between atoms: _273  and  _274
REMARK  111  A    between atoms: _273  and  _276
REMARK  112  A    between atoms: _279  and  _281
REMARK  113  A    between atoms: _281  and  _282
REMARK  114  A    between atoms: _281  and  _284
REMARK  115  A    between atoms: _284  and  _285
REMARK  116  A    between atoms: _288  and  _290
REMARK  117  A    between atoms: _290  and  _291
REMARK  118  A    between atoms: _290  and  _293
REMARK  119  A    between atoms: _296  and  _298
REMARK  120  A    between atoms: _298  and  _299
REMARK  121  A    between atoms: _298  and  _301
REMARK  122  A    between atoms: _301  and  _302
REMARK  123  A    between atoms: _305  and  _307
REMARK  124  A    between atoms: _307  and  _308
REMARK  125  A    between atoms: _311  and  _313
REMARK  126  A    between atoms: _313  and  _314
REMARK  127  A    between atoms: _313  and  _316
REMARK  128  A    between atoms: _319  and  _321
REMARK  129  A    between atoms: _321  and  _322
REMARK  130  A    between atoms: _325  and  _327
REMARK  131  A    between atoms: _327  and  _328
REMARK  132  A    between atoms: _331  and  _333
REMARK  133  A    between atoms: _333  and  _334
REMARK  134  A    between atoms: _333  and  _336
REMARK  135  A    between atoms: _336  and  _337
REMARK  136  A    between atoms: _342  and  _343
REMARK  137  A    between atoms: _345  and  _347
REMARK  138  A    between atoms: _347  and  _348
REMARK  139  A    between atoms: _347  and  _350
REMARK  140  A    between atoms: _350  and  _351
REMARK  141  A    between atoms: _351  and  _352
REMARK  142  A    between atoms: _352  and  _353
REMARK  143  A    between atoms: _353  and  _354
REMARK  144  A    between atoms: _358  and  _360
REMARK  145  A    between atoms: _360  and  _361
REMARK  146  A    between atoms: _360  and  _363
REMARK  147  A    between atoms: _363  and  _364
REMARK  148  A    between atoms: _366  and  _368
REMARK  149  A    between atoms: _368  and  _369
REMARK  150  A    between atoms: _368  and  _371
REMARK  151  A    between atoms: _371  and  _372
REMARK  152  A    between atoms: _378  and  _380
REMARK  153  A    between atoms: _380  and  _381
REMARK  154  A    between atoms: _380  and  _383
REMARK  155  A    between atoms: _383  and  _384
REMARK  156  A    between atoms: _387  and  _389
REMARK  157  A    between atoms: _389  and  _390
REMARK  158  A    between atoms: _389  and  _392
REMARK  159  A    between atoms: _395  and  _397
REMARK  160  A    between atoms: _397  and  _398
REMARK  161  A    between atoms: _397  and  _400
REMARK  162  A    between atoms: _400  and  _401
REMARK  163  A    between atoms: _401  and  _402
REMARK  164  A    between atoms: _407  and  _409
REMARK  165  A    between atoms: _409  and  _410
REMARK  166  A    between atoms: _409  and  _412
REMARK  167  A    between atoms: _415  and  _417
REMARK  168  A    between atoms: _417  and  _418
REMARK  169  A    between atoms: _420  and  _422
REMARK  170  A    between atoms: _422  and  _423
REMARK  171  A    between atoms: _422  and  _425
REMARK  172  A    between atoms: _425  and  _426
REMARK  173  A    between atoms: _429  and  _431
REMARK  174  A    between atoms: _431  and  _432
REMARK  175  A    between atoms: _431  and  _434
REMARK  176  A    between atoms: _434  and  _435
REMARK  177  A    between atoms: _440  and  _442
REMARK  178  A    between atoms: _442  and  _443
REMARK  179  A    between atoms: _446  and  _448
REMARK  180  A    between atoms: _448  and  _449
REMARK  181  A    between atoms: _448  and  _451
REMARK  182  A    between atoms: _451  and  _452
REMARK  183  A    between atoms: _457  and  _459
REMARK  184  A    between atoms: _459  and  _460
REMARK  185  A    between atoms: _459  and  _462
REMARK  186  A    between atoms: _462  and  _463
REMARK  187  A    between atoms: _473  and  _475
REMARK  188  A    between atoms: _475  and  _476
REMARK  189  A    between atoms: _475  and  _478
REMARK  190  A    between atoms: _478  and  _479
REMARK  191  A    between atoms: _482  and  _484
REMARK  192  A    between atoms: _484  and  _485
REMARK  193  A    between atoms: _488  and  _490
REMARK  194  A    between atoms: _490  and  _491
REMARK  195  A    between atoms: _490  and  _493
REMARK  196  A    between atoms: _493  and  _494
REMARK  197  A    between atoms: _496  and  _498
REMARK  198  A    between atoms: _498  and  _499
REMARK  199  A    between atoms: _498  and  _501
REMARK  200  A    between atoms: _501  and  _502
REMARK  201  A    between atoms: _502  and  _503
REMARK  202  A    between atoms: _506  and  _508
REMARK  203  A    between atoms: _508  and  _509
REMARK  204  A    between atoms: _508  and  _511
REMARK  205  A    between atoms: _511  and  _512
REMARK  206  A    between atoms: _512  and  _513
REMARK  207  A    between atoms: _516  and  _518
REMARK  208  A    between atoms: _518  and  _519
REMARK  209  A    between atoms: _518  and  _521
REMARK  210  A    between atoms: _521  and  _522
REMARK  211  A    between atoms: _522  and  _523
REMARK  212  A    between atoms: _523  and  _524
REMARK  213  A    between atoms: _533  and  _535
REMARK  214  A    between atoms: _535  and  _536
REMARK  215  A    between atoms: _539  and  _541
REMARK  216  A    between atoms: _541  and  _542
REMARK  217  A    between atoms: _541  and  _544
REMARK  218  A    between atoms: _544  and  _545
REMARK  219  A    between atoms: _545  and  _546
REMARK  220  A    between atoms: _549  and  _551
REMARK  221  A    between atoms: _551  and  _552
REMARK  222  A    between atoms: _554  and  _556
REMARK  223  A    between atoms: _556  and  _557
REMARK  224  A    between atoms: _556  and  _559
REMARK  225  A    between atoms: _559  and  _560
REMARK  226  A    between atoms: _565  and  _567
REMARK  227  A    between atoms: _567  and  _568
REMARK  228  A    between atoms: _567  and  _570
REMARK  229  A    between atoms: _570  and  _571
REMARK  230  A    between atoms: _576  and  _578
REMARK  231  A    between atoms: _578  and  _579
REMARK  232  A    between atoms: _578  and  _581
REMARK  233  A    between atoms: _581  and  _582
REMARK  234  A    between atoms: _582  and  _583
REMARK  235  A    between atoms: _585  and  _587
REMARK  236  A    between atoms: _587  and  _588
REMARK  237  A    between atoms: _587  and  _590
REMARK  238  A    between atoms: _590  and  _591
REMARK  239  A    between atoms: _591  and  _592
REMARK  240  A    between atoms: _597  and  _599
REMARK  241  A    between atoms: _599  and  _600
REMARK  242  A    between atoms: _603  and  _605
REMARK  243  A    between atoms: _605  and  _606
REMARK  244  A    between atoms: _605  and  _608
REMARK  245  A    between atoms: _608  and  _609
REMARK  246  A    between atoms: _614  and  _616
REMARK  247  A    between atoms: _616  and  _617
REMARK  248  A    between atoms: _616  and  _619
REMARK  249  A    between atoms: _619  and  _620
REMARK  250  A    between atoms: _620  and  _621
REMARK  251  A    between atoms: _623  and  _625
REMARK  252  A    between atoms: _625  and  _626
REMARK  253  A    between atoms: _625  and  _628
REMARK  254  A    between atoms: _628  and  _629
REMARK  255  A    between atoms: _629  and  _630
REMARK  256  A    between atoms: _630  and  _631
REMARK  257  A    between atoms: _640  and  _642
REMARK  258  A    between atoms: _642  and  _643
REMARK  259  A    between atoms: _642  and  _645
REMARK  260  A    between atoms: _645  and  _646
REMARK  261  A    between atoms: _646  and  _647
REMARK  262  A    between atoms: _647  and  _648
REMARK  263  A    between atoms: _648  and  _649
REMARK  264  A    between atoms: _653  and  _655
REMARK  265  A    between atoms: _655  and  _656
REMARK  266  A    between atoms: _655  and  _658
REMARK  267  A    between atoms: _658  and  _659
REMARK  268  A    between atoms: _661  and  _663
REMARK  269  A    between atoms: _663  and  _664
REMARK  270  A    between atoms: _663  and  _666
REMARK  271  A    between atoms: _666  and  _667
REMARK  272  A    between atoms: _667  and  _668
REMARK  273  A    between atoms: _668  and  _669
REMARK  274  A    between atoms: _678  and  _680
REMARK  275  A    between atoms: _680  and  _681
REMARK  276  A    between atoms: _680  and  _683
REMARK  277  A    between atoms: _683  and  _684
REMARK  278  A    between atoms: _684  and  _685
REMARK  279  A    between atoms: _685  and  _686
REMARK  280  A    between atoms: _686  and  _687
REMARK  281  A    between atoms: _691  and  _693
REMARK  282  A    between atoms: _693  and  _694
REMARK  283  A    between atoms: _693  and  _696
REMARK  284  A    between atoms: _696  and  _697
REMARK  285  A    between atoms: _700  and  _702
REMARK  286  A    between atoms: _702  and  _703
REMARK  287  A    between atoms: _702  and  _705
REMARK  288  A    between atoms: _705  and  _706
REMARK                            x       y       z     vdW  Elec       q    Type
REMARK                         _______ _______ _______ _____ _____    ______ ____
ROOT
ATOM      1  C   ALA A   2      13.879  23.245  58.163  0.00  0.00    +0.241 C 
ATOM      2  O   ALA A   2      14.498  24.184  58.664  0.00  0.00    -0.273 OA
ATOM      3  N   HIS A   3      13.889  22.994  56.857  0.00  0.00    -0.297 N 
ATOM      4  H   HIS A   3      13.393  22.156  56.491  0.00  0.00    +0.150 HD
ENDROOT
BRANCH   1   5
ATOM      5  CA  ALA A   2      13.077  22.291  59.045  0.00  0.00    +0.149 C 
ATOM      6  CB  ALA A   2      13.965  21.165  59.547  0.00  0.00    +0.031 C 
BRANCH   5   9
ATOM      7  C   GLN A   1      10.780  22.448  58.229  0.00  0.00    +0.238 C 
ATOM      8  O   GLN A   1      10.723  23.656  58.450  0.00  0.00    -0.274 OA
ATOM      9  N   ALA A   2      11.889  21.740  58.393  0.00  0.00    -0.297 N 
ATOM     10  H   ALA A   2      11.915  20.760  58.046  0.00  0.00    +0.150 HD
BRANCH   7  11
ATOM     11  CA  GLN A   1       9.552  21.687  57.749  0.00  0.00    +0.145 C 
BRANCH  11  12
ATOM     12  N   GLN A   1       8.431  21.980  58.640  0.00  0.00    -0.238 NA
ATOM     13  H   GLN A   1       8.301  22.948  58.997  0.00  0.00    +0.142 HD
ENDBRANCH  11  12
BRANCH  11  14
ATOM     14  CB  GLN A   1       9.198  22.050  56.306  0.00  0.00    +0.036 C 
BRANCH  14  15
ATOM     15  CG  GLN A   1       9.805  21.140  55.239  0.00  0.00    +0.087 C 
BRANCH  15  16
ATOM     16  CD  GLN A   1      11.282  21.385  55.030  0.00  0.00    +0.219 C 
ATOM     17  OE1 GLN A   1      11.741  22.527  55.043  0.00  0.00    -0.275 OA
ATOM     18  NE2 GLN A   1      12.041  20.312  54.848  0.00  0.00    -0.329 N 
ATOM     19 HE21 GLN A   1      11.611  19.365  54.844  0.00  0.00    +0.145 HD
ATOM     20 HE22 GLN A   1      13.066  20.418  54.709  0.00  0.00    +0.145 HD
ENDBRANCH  15  16
ENDBRANCH  14  15
ENDBRANCH  11  14
ENDBRANCH   7  11
ENDBRANCH   5   9
ENDBRANCH   1   5
BRANCH   3  21
ATOM     21  CA  HIS A   3      14.585  23.877  55.933  0.00  0.00    +0.155 C 
BRANCH  21  22
ATOM     22  C   HIS A   3      13.837  25.196  55.789  0.00  0.00    +0.241 C 
ATOM     23  N   MET A   4      12.510  25.123  55.808  0.00  0.00    -0.298 N 
ATOM     24  H   MET A   4      12.053  24.194  55.907  0.00  0.00    +0.150 HD
ATOM     25  O   HIS A   3      14.449  26.254  55.664  0.00  0.00    -0.273 OA
BRANCH  23  26
ATOM     26  CA  MET A   4      11.683  26.313  55.694  0.00  0.00    +0.138 C 
BRANCH  26  27
ATOM     27  C   MET A   4      11.733  27.166  56.966  0.00  0.00    +0.227 C 
ATOM     28  O   MET A   4      11.727  28.394  56.898  0.00  0.00    -0.286 OA
ENDBRANCH  26  27
BRANCH  26  29
ATOM     29  CB  MET A   4      10.241  25.932  55.337  0.00  0.00    +0.039 C 
BRANCH  29  30
ATOM     30  CG  MET A   4      10.115  25.242  53.989  0.00  0.00    +0.060 C 
BRANCH  30  31
ATOM     31  SD  MET A   4      11.010  26.088  52.659  0.00  0.00    -0.139 S 
ATOM     32  CE  MET A   4       9.885  27.408  52.230  0.00  0.00    +0.069 C 
ENDBRANCH  30  31
ENDBRANCH  29  30
ENDBRANCH  26  29
ENDBRANCH  23  26
ENDBRANCH  21  22
BRANCH  21  33
ATOM     33  CB  HIS A   3      14.756  23.221  54.565  0.00  0.00    +0.076 C 
BRANCH  33  34
ATOM     34  CG  HIS A   3      15.800  22.153  54.541  0.00  0.00    +0.082 A 
ATOM     35  ND1 HIS A   3      15.512  20.825  54.764  0.00  0.00    -0.227 NA
ATOM     36  CE1 HIS A   3      16.627  20.120  54.692  0.00  0.00    +0.199 A 
ATOM     37  NE2 HIS A   3      17.625  20.943  54.433  0.00  0.00    -0.221 NA
ATOM     38  CD2 HIS A   3      17.136  22.222  54.336  0.00  0.00    +0.115 A 
ENDBRANCH  33  34
ENDBRANCH  21  33
ENDBRANCH   3  21
TORSDOF 16
REMARK  Name = ../refined-set-2016/3t6b/3t6b_pocket.pdb
REMARK  288 active torsions:
REMARK  status: ('A' for Active; 'I' for Inactive)
REMARK    1  A    between atoms: _1  and  _3
REMARK    2  A    between atoms: _3  and  _4
REMARK    3  A    between atoms: _6  and  _8
REMARK    4  A    between atoms: _8  and  _9
REMARK    5  A    between atoms: _8  and  _11
REMARK    6  A    between atoms: _11  and  _12
REMARK    7  A    between atoms: _14  and  _16
REMARK    8  A    between atoms: _16  and  _17
REMARK    9  A    between atoms: _16  and  _19
REMARK   10  A    between atoms: _19  and  _20
REMARK   11  A    between atoms: _23  and  _25
REMARK   12  A    between atoms: _25  and  _26
REMARK   13  A    between atoms: _25  and  _28
REMARK   14  A    between atoms: _28  and  _29
REMARK   15  A    between atoms: _31  and  _33
REMARK   16  A    between atoms: _33  and  _34
REMARK   17  A    between atoms: _33  and  _36
REMARK   18  A    between atoms: _36  and  _37
REMARK   19  A    between atoms: _43  and  _45
REMARK   20  A    between atoms: _45  and  _46
REMARK   21  A    between atoms: _45  and  _48
REMARK   22  A    between atoms: _48  and  _49
REMARK   23  A    between atoms: _54  and  _55
REMARK   24  A    between atoms: _57  and  _59
REMARK   25  A    between atoms: _59  and  _60
REMARK   26  A    between atoms: _59  and  _62
REMARK   27  A    between atoms: _62  and  _63
REMARK   28  A    between atoms: _66  and  _68
REMARK   29  A    between atoms: _68  and  _69
REMARK   30  A    between atoms: _68  and  _71
REMARK   31  A    between atoms: _71  and  _72
REMARK   32  A    between atoms: _72  and  _73
REMARK   33  A    between atoms: _76  and  _78
REMARK   34  A    between atoms: _78  and  _79
REMARK   35  A    between atoms: _78  and  _81
REMARK   36  A    between atoms: _81  and  _82
REMARK   37  A    between atoms: _84  and  _86
REMARK   38  A    between atoms: _86  and  _87
REMARK   39  A    between atoms: _86  and  _89
REMARK   40  A    between atoms: _89  and  _90
REMARK   41  A    between atoms: _95  and  _96
REMARK   42  A    between atoms: _98  and  _100
REMARK   43  A    between atoms: _100  and  _101
REMARK   44  A    between atoms: _100  and  _103
REMARK   45  A    between atoms: _103  and  _104
REMARK   46  A    between atoms: _104  and  _105
REMARK   47  A    between atoms: _108  and  _110
REMARK   48  A    between atoms: _110  and  _111
REMARK   49  A    between atoms: _110  and  _113
REMARK   50  A    between atoms: _113  and  _114
REMARK   51  A    between atoms: _120  and  _122
REMARK   52  A    between atoms: _122  and  _123
REMARK   53  A    between atoms: _122  and  _125
REMARK   54  A    between atoms: _125  and  _126
REMARK   55  A    between atoms: _128  and  _130
REMARK   56  A    between atoms: _130  and  _131
REMARK   57  A    between atoms: _133  and  _135
REMARK   58  A    between atoms: _135  and  _136
REMARK   59  A    between atoms: _135  and  _138
REMARK   60  A    between atoms: _138  and  _139
REMARK   61  A    between atoms: _143  and  _144
REMARK   62  A    between atoms: _149  and  _151
REMARK   63  A    between atoms: _151  and  _152
REMARK   64  A    between atoms: _155  and  _157
REMARK   65  A    between atoms: _157  and  _158
REMARK   66  A    between atoms: _160  and  _162
REMARK   67  A    between atoms: _162  and  _163
REMARK   68  A    between atoms: _162  and  _165
REMARK   69  A    between atoms: _165  and  _166
REMARK   70  A    between atoms: _169  and  _171
REMARK   71  A    between atoms: _171  and  _172
REMARK   72  A    between atoms: _171  and  _174
REMARK   73  A    between atoms: _174  and  _175
REMARK   74  A    between atoms: _180  and  _182
REMARK   75  A    between atoms: _182  and  _183
REMARK   76  A    between atoms: _182  and  _185
REMARK   77  A    between atoms: _185  and  _186
REMARK   78  A    between atoms: _190  and  _191
REMARK   79  A    between atoms: _196  and  _198
REMARK   80  A    between atoms: _198  and  _199
REMARK   81  A    between atoms: _198  and  _201
REMARK   82  A    between atoms: _201  and  _202
REMARK   83  A    between atoms: _207  and  _209
REMARK   84  A    between atoms: _209  and  _210
REMARK   85  A    between atoms: _209  and  _212
REMARK   86  A    between atoms: _212  and  _213
REMARK   87  A    between atoms: _218  and  _219
REMARK   88  A    between atoms: _221  and  _223
REMARK   89  A    between atoms: _223  and  _224
REMARK   90  A    between atoms: _223  and  _226
REMARK   91  A    between atoms: _226  and  _227
REMARK   92  A    between atoms: _230  and  _232
REMARK   93  A    between atoms: _232  and  _233
REMARK   94  A    between atoms: _232  and  _235
REMARK   95  A    between atoms: _235  and  _236
REMARK   96  A    between atoms: _236  and  _237
REMARK   97  A    between atoms: _237  and  _238
REMARK   98  A    between atoms: _247  and  _249
REMARK   99  A    between atoms: _249  and  _250
REMARK  100  A    between atoms: _249  and  _252
REMARK  101  A    between atoms: _252  and  _253
REMARK  102  A    between atoms: _253  and  _254
REMARK  103  A    between atoms: _254  and  _255
REMARK  104  A    between atoms: _255  and  _256
REMARK  105  A    between atoms: _260  and  _262
REMARK  106  A    between atoms: _262  and  _263
REMARK  107  A    between atoms: _262  and  _265
REMARK  108  A    between atoms: _265  and  _266
REMARK  109  A    between atoms: _271  and  _273
REMARK  110  A    between atoms: _273  and  _274
REMARK  111  A    between atoms: _273  and  _276
REMARK  112  A    between atoms: _279  and  _281
REMARK  113  A    between atoms: _281  and  _282
REMARK  114  A    between atoms: _281  and  _284
REMARK  115  A    between atoms: _284  and  _285
REMARK  116  A    between atoms: _288  and  _290
REMARK  117  A    between atoms: _290  and  _291
REMARK  118  A    between atoms: _290  and  _293
REMARK  119  A    between atoms: _296  and  _298
REMARK  120  A    between atoms: _298  and  _299
REMARK  121  A    between atoms: _298  and  _301
REMARK  122  A    between atoms: _301  and  _302
REMARK  123  A    between atoms: _305  and  _307
REMARK  124  A    between atoms: _307  and  _308
REMARK  125  A    between atoms: _311  and  _313
REMARK  126  A    between atoms: _313  and  _314
REMARK  127  A    between atoms: _313  and  _316
REMARK  128  A    between atoms: _319  and  _321
REMARK  129  A    between atoms: _321  and  _322
REMARK  130  A    between atoms: _325  and  _327
REMARK  131  A    between atoms: _327  and  _328
REMARK  132  A    between atoms: _331  and  _333
REMARK  133  A    between atoms: _333  and  _334
REMARK  134  A    between atoms: _333  and  _336
REMARK  135  A    between atoms: _336  and  _337
REMARK  136  A    between atoms: _342  and  _343
REMARK  137  A    between atoms: _345  and  _347
REMARK  138  A    between atoms: _347  and  _348
REMARK  139  A    between atoms: _347  and  _350
REMARK  140  A    between atoms: _350  and  _351
REMARK  141  A    between atoms: _351  and  _352
REMARK  142  A    between atoms: _352  and  _353
REMARK  143  A    between atoms: _353  and  _354
REMARK  144  A    between atoms: _358  and  _360
REMARK  145  A    between atoms: _360  and  _361
REMARK  146  A    between atoms: _360  and  _363
REMARK  147  A    between atoms: _363  and  _364
REMARK  148  A    between atoms: _366  and  _368
REMARK  149  A    between atoms: _368  and  _369
REMARK  150  A    between atoms: _368  and  _371
REMARK  151  A    between atoms: _371  and  _372
REMARK  152  A    between atoms: _378  and  _380
REMARK  153  A    between atoms: _380  and  _381
REMARK  154  A    between atoms: _380  and  _383
REMARK  155  A    between atoms: _383  and  _384
REMARK  156  A    between atoms: _387  and  _389
REMARK  157  A    between atoms: _389  and  _390
REMARK  158  A    between atoms: _389  and  _392
REMARK  159  A    between atoms: _395  and  _397
REMARK  160  A    between atoms: _397  and  _398
REMARK  161  A    between atoms: _397  and  _400
REMARK  162  A    between atoms: _400  and  _401
REMARK  163  A    between atoms: _401  and  _402
REMARK  164  A    between atoms: _407  and  _409
REMARK  165  A    between atoms: _409  and  _410
REMARK  166  A    between atoms: _409  and  _412
REMARK  167  A    between atoms: _415  and  _417
REMARK  168  A    between atoms: _417  and  _418
REMARK  169  A    between atoms: _420  and  _422
REMARK  170  A    between atoms: _422  and  _423
REMARK  171  A    between atoms: _422  and  _425
REMARK  172  A    between atoms: _425  and  _426
REMARK  173  A    between atoms: _429  and  _431
REMARK  174  A    between atoms: _431  and  _432
REMARK  175  A    between atoms: _431  and  _434
REMARK  176  A    between atoms: _434  and  _435
REMARK  177  A    between atoms: _440  and  _442
REMARK  178  A    between atoms: _442  and  _443
REMARK  179  A    between atoms: _446  and  _448
REMARK  180  A    between atoms: _448  and  _449
REMARK  181  A    between atoms: _448  and  _451
REMARK  182  A    between atoms: _451  and  _452
REMARK  183  A    between atoms: _457  and  _459
REMARK  184  A    between atoms: _459  and  _460
REMARK  185  A    between atoms: _459  and  _462
REMARK  186  A    between atoms: _462  and  _463
REMARK  187  A    between atoms: _473  and  _475
REMARK  188  A    between atoms: _475  and  _476
REMARK  189  A    between atoms: _475  and  _478
REMARK  190  A    between atoms: _478  and  _479
REMARK  191  A    between atoms: _482  and  _484
REMARK  192  A    between atoms: _484  and  _485
REMARK  193  A    between atoms: _488  and  _490
REMARK  194  A    between atoms: _490  and  _491
REMARK  195  A    between atoms: _490  and  _493
REMARK  196  A    between atoms: _493  and  _494
REMARK  197  A    between atoms: _496  and  _498
REMARK  198  A    between atoms: _498  and  _499
REMARK  199  A    between atoms: _498  and  _501
REMARK  200  A    between atoms: _501  and  _502
REMARK  201  A    between atoms: _502  and  _503
REMARK  202  A    between atoms: _506  and  _508
REMARK  203  A    between atoms: _508  and  _509
REMARK  204  A    between atoms: _508  and  _511
REMARK  205  A    between atoms: _511  and  _512
REMARK  206  A    between atoms: _512  and  _513
REMARK  207  A    between atoms: _516  and  _518
REMARK  208  A    between atoms: _518  and  _519
REMARK  209  A    between atoms: _518  and  _521
REMARK  210  A    between atoms: _521  and  _522
REMARK  211  A    between atoms: _522  and  _523
REMARK  212  A    between atoms: _523  and  _524
REMARK  213  A    between atoms: _533  and  _535
REMARK  214  A    between atoms: _535  and  _536
REMARK  215  A    between atoms: _539  and  _541
REMARK  216  A    between atoms: _541  and  _542
REMARK  217  A    between atoms: _541  and  _544
REMARK  218  A    between atoms: _544  and  _545
REMARK  219  A    between atoms: _545  and  _546
REMARK  220  A    between atoms: _549  and  _551
REMARK  221  A    between atoms: _551  and  _552
REMARK  222  A    between atoms: _554  and  _556
REMARK  223  A    between atoms: _556  and  _557
REMARK  224  A    between atoms: _556  and  _559
REMARK  225  A    between atoms: _559  and  _560
REMARK  226  A    between atoms: _565  and  _567
REMARK  227  A    between atoms: _567  and  _568
REMARK  228  A    between atoms: _567  and  _570
REMARK  229  A    between atoms: _570  and  _571
REMARK  230  A    between atoms: _576  and  _578
REMARK  231  A    between atoms: _578  and  _579
REMARK  232  A    between atoms: _578  and  _581
REMARK  233  A    between atoms: _581  and  _582
REMARK  234  A    between atoms: _582  and  _583
REMARK  235  A    between atoms: _585  and  _587
REMARK  236  A    between atoms: _587  and  _588
REMARK  237  A    between atoms: _587  and  _590
REMARK  238  A    between atoms: _590  and  _591
REMARK  239  A    between atoms: _591  and  _592
REMARK  240  A    between atoms: _597  and  _599
REMARK  241  A    between atoms: _599  and  _600
REMARK  242  A    between atoms: _603  and  _605
REMARK  243  A    between atoms: _605  and  _606
REMARK  244  A    between atoms: _605  and  _608
REMARK  245  A    between atoms: _608  and  _609
REMARK  246  A    between atoms: _614  and  _616
REMARK  247  A    between atoms: _616  and  _617
REMARK  248  A    between atoms: _616  and  _619
REMARK  249  A    between atoms: _619  and  _620
REMARK  250  A    between atoms: _620  and  _621
REMARK  251  A    between atoms: _623  and  _625
REMARK  252  A    between atoms: _625  and  _626
REMARK  253  A    between atoms: _625  and  _628
REMARK  254  A    between atoms: _628  and  _629
REMARK  255  A    between atoms: _629  and  _630
REMARK  256  A    between atoms: _630  and  _631
REMARK  257  A    between atoms: _640  and  _642
REMARK  258  A    between atoms: _642  and  _643
REMARK  259  A    between atoms: _642  and  _645
REMARK  260  A    between atoms: _645  and  _646
REMARK  261  A    between atoms: _646  and  _647
REMARK  262  A    between atoms: _647  and  _648
REMARK  263  A    between atoms: _648  and  _649
REMARK  264  A    between atoms: _653  and  _655
REMARK  265  A    between atoms: _655  and  _656
REMARK  266  A    between atoms: _655  and  _658
REMARK  267  A    between atoms: _658  and  _659
REMARK  268  A    between atoms: _661  and  _663
REMARK  269  A    between atoms: _663  and  _664
REMARK  270  A    between atoms: _663  and  _666
REMARK  271  A    between atoms: _666  and  _667
REMARK  272  A    between atoms: _667  and  _668
REMARK  273  A    between atoms: _668  and  _669
REMARK  274  A    between atoms: _678  and  _680
REMARK  275  A    between atoms: _680  and  _681
REMARK  276  A    between atoms: _680  and  _683
REMARK  277  A    between atoms: _683  and  _684
REMARK  278  A    between atoms: _684  and  _685
REMARK  279  A    between atoms: _685  and  _686
REMARK  280  A    between atoms: _686  and  _687
REMARK  281  A    between atoms: _691  and  _693
REMARK  282  A    between atoms: _693  and  _694
REMARK  283  A    between atoms: _693  and  _696
REMARK  284  A    between atoms: _696  and  _697
REMARK  285  A    between atoms: _700  and  _702
REMARK  286  A    between atoms: _702  and  _703
REMARK  287  A    between atoms: _702  and  _705
REMARK  288  A    between atoms: _705  and  _706
REMARK                            x       y       z     vdW  Elec       q    Type
REMARK                         _______ _______ _______ _____ _____    ______ ____
ROOT
ATOM      1  NE  ARG A   1      15.897  27.328  52.082  0.00  0.00    -0.265 N 
ATOM      2  HE  ARG A   1      16.891  27.634  52.061  0.00  0.00    +0.259 HD
ATOM      3  CZ  ARG A   1      15.604  26.139  51.562  0.00  0.00    +0.342 C 
ATOM      4  NH2 ARG A   1      14.347  25.700  51.540  0.00  0.00    -0.292 N 
ATOM      5 HH21 ARG A   1      13.584  26.288  51.932  0.00  0.00    +0.255 HD
ATOM      6 HH22 ARG A   1      14.128  24.769  51.131  0.00  0.00    +0.255 HD
ATOM      7  NH1 ARG A   1      16.573  25.392  51.051  0.00  0.00    -0.292 N 
ATOM      8 HH11 ARG A   1      17.554  25.737  51.058  0.00  0.00    +0.255 HD
ATOM      9 HH12 ARG A   1      16.352  24.461  50.643  0.00  0.00    +0.255 HD
ENDROOT
BRANCH   1  10
ATOM     10  CD  ARG A   1      14.922  28.233  52.680  0.00  0.00    +0.174 C 
BRANCH  10  11
ATOM     11  CG  ARG A   1      15.367  28.656  54.067  0.00  0.00    +0.045 C 
BRANCH  11  12
ATOM     12  CB  ARG A   1      14.479  29.734  54.659  0.00  0.00    +0.029 C 
BRANCH  12  13
ATOM     13  CA  ARG A   1      14.961  30.209  56.030  0.00  0.00    +0.133 C 
BRANCH  13  14
ATOM     14  N   ARG A   1      14.940  29.121  56.990  0.00  0.00    -0.239 NA
ATOM     15  H   ARG A   1      14.351  28.284  56.804  0.00  0.00    +0.142 HD
ENDBRANCH  13  14
BRANCH  13  16
ATOM     16  C   ARG A   1      14.140  31.387  56.534  0.00  0.00    +0.224 C 
ATOM     17  O   ARG A   1      14.436  32.534  56.218  0.00  0.00    -0.287 OA
ENDBRANCH  13  16
ENDBRANCH  12  13
ENDBRANCH  11  12
ENDBRANCH  10  11
ENDBRANCH   1  10
TORSDOF 6
REMARK  Name = ../refined-set-2016/3t6b/3t6b_pocket.pdb
REMARK  288 active torsions:
REMARK  status: ('A' for Active; 'I' for Inactive)
REMARK    1  A    between atoms: _1  and  _3
REMARK    2  A    between atoms: _3  and  _4
REMARK    3  A    between atoms: _6  and  _8
REMARK    4  A    between atoms: _8  and  _9
REMARK    5  A    between atoms: _8  and  _11
REMARK    6  A    between atoms: _11  and  _12
REMARK    7  A    between atoms: _14  and  _16
REMARK    8  A    between atoms: _16  and  _17
REMARK    9  A    between atoms: _16  and  _19
REMARK   10  A    between atoms: _19  and  _20
REMARK   11  A    between atoms: _23  and  _25
REMARK   12  A    between atoms: _25  and  _26
REMARK   13  A    between atoms: _25  and  _28
REMARK   14  A    between atoms: _28  and  _29
REMARK   15  A    between atoms: _31  and  _33
REMARK   16  A    between atoms: _33  and  _34
REMARK   17  A    between atoms: _33  and  _36
REMARK   18  A    between atoms: _36  and  _37
REMARK   19  A    between atoms: _43  and  _45
REMARK   20  A    between atoms: _45  and  _46
REMARK   21  A    between atoms: _45  and  _48
REMARK   22  A    between atoms: _48  and  _49
REMARK   23  A    between atoms: _54  and  _55
REMARK   24  A    between atoms: _57  and  _59
REMARK   25  A    between atoms: _59  and  _60
REMARK   26  A    between atoms: _59  and  _62
REMARK   27  A    between atoms: _62  and  _63
REMARK   28  A    between atoms: _66  and  _68
REMARK   29  A    between atoms: _68  and  _69
REMARK   30  A    between atoms: _68  and  _71
REMARK   31  A    between atoms: _71  and  _72
REMARK   32  A    between atoms: _72  and  _73
REMARK   33  A    between atoms: _76  and  _78
REMARK   34  A    between atoms: _78  and  _79
REMARK   35  A    between atoms: _78  and  _81
REMARK   36  A    between atoms: _81  and  _82
REMARK   37  A    between atoms: _84  and  _86
REMARK   38  A    between atoms: _86  and  _87
REMARK   39  A    between atoms: _86  and  _89
REMARK   40  A    between atoms: _89  and  _90
REMARK   41  A    between atoms: _95  and  _96
REMARK   42  A    between atoms: _98  and  _100
REMARK   43  A    between atoms: _100  and  _101
REMARK   44  A    between atoms: _100  and  _103
REMARK   45  A    between atoms: _103  and  _104
REMARK   46  A    between atoms: _104  and  _105
REMARK   47  A    between atoms: _108  and  _110
REMARK   48  A    between atoms: _110  and  _111
REMARK   49  A    between atoms: _110  and  _113
REMARK   50  A    between atoms: _113  and  _114
REMARK   51  A    between atoms: _120  and  _122
REMARK   52  A    between atoms: _122  and  _123
REMARK   53  A    between atoms: _122  and  _125
REMARK   54  A    between atoms: _125  and  _126
REMARK   55  A    between atoms: _128  and  _130
REMARK   56  A    between atoms: _130  and  _131
REMARK   57  A    between atoms: _133  and  _135
REMARK   58  A    between atoms: _135  and  _136
REMARK   59  A    between atoms: _135  and  _138
REMARK   60  A    between atoms: _138  and  _139
REMARK   61  A    between atoms: _143  and  _144
REMARK   62  A    between atoms: _149  and  _151
REMARK   63  A    between atoms: _151  and  _152
REMARK   64  A    between atoms: _155  and  _157
REMARK   65  A    between atoms: _157  and  _158
REMARK   66  A    between atoms: _160  and  _162
REMARK   67  A    between atoms: _162  and  _163
REMARK   68  A    between atoms: _162  and  _165
REMARK   69  A    between atoms: _165  and  _166
REMARK   70  A    between atoms: _169  and  _171
REMARK   71  A    between atoms: _171  and  _172
REMARK   72  A    between atoms: _171  and  _174
REMARK   73  A    between atoms: _174  and  _175
REMARK   74  A    between atoms: _180  and  _182
REMARK   75  A    between atoms: _182  and  _183
REMARK   76  A    between atoms: _182  and  _185
REMARK   77  A    between atoms: _185  and  _186
REMARK   78  A    between atoms: _190  and  _191
REMARK   79  A    between atoms: _196  and  _198
REMARK   80  A    between atoms: _198  and  _199
REMARK   81  A    between atoms: _198  and  _201
REMARK   82  A    between atoms: _201  and  _202
REMARK   83  A    between atoms: _207  and  _209
REMARK   84  A    between atoms: _209  and  _210
REMARK   85  A    between atoms: _209  and  _212
REMARK   86  A    between atoms: _212  and  _213
REMARK   87  A    between atoms: _218  and  _219
REMARK   88  A    between atoms: _221  and  _223
REMARK   89  A    between atoms: _223  and  _224
REMARK   90  A    between atoms: _223  and  _226
REMARK   91  A    between atoms: _226  and  _227
REMARK   92  A    between atoms: _230  and  _232
REMARK   93  A    between atoms: _232  and  _233
REMARK   94  A    between atoms: _232  and  _235
REMARK   95  A    between atoms: _235  and  _236
REMARK   96  A    between atoms: _236  and  _237
REMARK   97  A    between atoms: _237  and  _238
REMARK   98  A    between atoms: _247  and  _249
REMARK   99  A    between atoms: _249  and  _250
REMARK  100  A    between atoms: _249  and  _252
REMARK  101  A    between atoms: _252  and  _253
REMARK  102  A    between atoms: _253  and  _254
REMARK  103  A    between atoms: _254  and  _255
REMARK  104  A    between atoms: _255  and  _256
REMARK  105  A    between atoms: _260  and  _262
REMARK  106  A    between atoms: _262  and  _263
REMARK  107  A    between atoms: _262  and  _265
REMARK  108  A    between atoms: _265  and  _266
REMARK  109  A    between atoms: _271  and  _273
REMARK  110  A    between atoms: _273  and  _274
REMARK  111  A    between atoms: _273  and  _276
REMARK  112  A    between atoms: _279  and  _281
REMARK  113  A    between atoms: _281  and  _282
REMARK  114  A    between atoms: _281  and  _284
REMARK  115  A    between atoms: _284  and  _285
REMARK  116  A    between atoms: _288  and  _290
REMARK  117  A    between atoms: _290  and  _291
REMARK  118  A    between atoms: _290  and  _293
REMARK  119  A    between atoms: _296  and  _298
REMARK  120  A    between atoms: _298  and  _299
REMARK  121  A    between atoms: _298  and  _301
REMARK  122  A    between atoms: _301  and  _302
REMARK  123  A    between atoms: _305  and  _307
REMARK  124  A    between atoms: _307  and  _308
REMARK  125  A    between atoms: _311  and  _313
REMARK  126  A    between atoms: _313  and  _314
REMARK  127  A    between atoms: _313  and  _316
REMARK  128  A    between atoms: _319  and  _321
REMARK  129  A    between atoms: _321  and  _322
REMARK  130  A    between atoms: _325  and  _327
REMARK  131  A    between atoms: _327  and  _328
REMARK  132  A    between atoms: _331  and  _333
REMARK  133  A    between atoms: _333  and  _334
REMARK  134  A    between atoms: _333  and  _336
REMARK  135  A    between atoms: _336  and  _337
REMARK  136  A    between atoms: _342  and  _343
REMARK  137  A    between atoms: _345  and  _347
REMARK  138  A    between atoms: _347  and  _348
REMARK  139  A    between atoms: _347  and  _350
REMARK  140  A    between atoms: _350  and  _351
REMARK  141  A    between atoms: _351  and  _352
REMARK  142  A    between atoms: _352  and  _353
REMARK  143  A    between atoms: _353  and  _354
REMARK  144  A    between atoms: _358  and  _360
REMARK  145  A    between atoms: _360  and  _361
REMARK  146  A    between atoms: _360  and  _363
REMARK  147  A    between atoms: _363  and  _364
REMARK  148  A    between atoms: _366  and  _368
REMARK  149  A    between atoms: _368  and  _369
REMARK  150  A    between atoms: _368  and  _371
REMARK  151  A    between atoms: _371  and  _372
REMARK  152  A    between atoms: _378  and  _380
REMARK  153  A    between atoms: _380  and  _381
REMARK  154  A    between atoms: _380  and  _383
REMARK  155  A    between atoms: _383  and  _384
REMARK  156  A    between atoms: _387  and  _389
REMARK  157  A    between atoms: _389  and  _390
REMARK  158  A    between atoms: _389  and  _392
REMARK  159  A    between atoms: _395  and  _397
REMARK  160  A    between atoms: _397  and  _398
REMARK  161  A    between atoms: _397  and  _400
REMARK  162  A    between atoms: _400  and  _401
REMARK  163  A    between atoms: _401  and  _402
REMARK  164  A    between atoms: _407  and  _409
REMARK  165  A    between atoms: _409  and  _410
REMARK  166  A    between atoms: _409  and  _412
REMARK  167  A    between atoms: _415  and  _417
REMARK  168  A    between atoms: _417  and  _418
REMARK  169  A    between atoms: _420  and  _422
REMARK  170  A    between atoms: _422  and  _423
REMARK  171  A    between atoms: _422  and  _425
REMARK  172  A    between atoms: _425  and  _426
REMARK  173  A    between atoms: _429  and  _431
REMARK  174  A    between atoms: _431  and  _432
REMARK  175  A    between atoms: _431  and  _434
REMARK  176  A    between atoms: _434  and  _435
REMARK  177  A    between atoms: _440  and  _442
REMARK  178  A    between atoms: _442  and  _443
REMARK  179  A    between atoms: _446  and  _448
REMARK  180  A    between atoms: _448  and  _449
REMARK  181  A    between atoms: _448  and  _451
REMARK  182  A    between atoms: _451  and  _452
REMARK  183  A    between atoms: _457  and  _459
REMARK  184  A    between atoms: _459  and  _460
REMARK  185  A    between atoms: _459  and  _462
REMARK  186  A    between atoms: _462  and  _463
REMARK  187  A    between atoms: _473  and  _475
REMARK  188  A    between atoms: _475  and  _476
REMARK  189  A    between atoms: _475  and  _478
REMARK  190  A    between atoms: _478  and  _479
REMARK  191  A    between atoms: _482  and  _484
REMARK  192  A    between atoms: _484  and  _485
REMARK  193  A    between atoms: _488  and  _490
REMARK  194  A    between atoms: _490  and  _491
REMARK  195  A    between atoms: _490  and  _493
REMARK  196  A    between atoms: _493  and  _494
REMARK  197  A    between atoms: _496  and  _498
REMARK  198  A    between atoms: _498  and  _499
REMARK  199  A    between atoms: _498  and  _501
REMARK  200  A    between atoms: _501  and  _502
REMARK  201  A    between atoms: _502  and  _503
REMARK  202  A    between atoms: _506  and  _508
REMARK  203  A    between atoms: _508  and  _509
REMARK  204  A    between atoms: _508  and  _511
REMARK  205  A    between atoms: _511  and  _512
REMARK  206  A    between atoms: _512  and  _513
REMARK  207  A    between atoms: _516  and  _518
REMARK  208  A    between atoms: _518  and  _519
REMARK  209  A    between atoms: _518  and  _521
REMARK  210  A    between atoms: _521  and  _522
REMARK  211  A    between atoms: _522  and  _523
REMARK  212  A    between atoms: _523  and  _524
REMARK  213  A    between atoms: _533  and  _535
REMARK  214  A    between atoms: _535  and  _536
REMARK  215  A    between atoms: _539  and  _541
REMARK  216  A    between atoms: _541  and  _542
REMARK  217  A    between atoms: _541  and  _544
REMARK  218  A    between atoms: _544  and  _545
REMARK  219  A    between atoms: _545  and  _546
REMARK  220  A    between atoms: _549  and  _551
REMARK  221  A    between atoms: _551  and  _552
REMARK  222  A    between atoms: _554  and  _556
REMARK  223  A    between atoms: _556  and  _557
REMARK  224  A    between atoms: _556  and  _559
REMARK  225  A    between atoms: _559  and  _560
REMARK  226  A    between atoms: _565  and  _567
REMARK  227  A    between atoms: _567  and  _568
REMARK  228  A    between atoms: _567  and  _570
REMARK  229  A    between atoms: _570  and  _571
REMARK  230  A    between atoms: _576  and  _578
REMARK  231  A    between atoms: _578  and  _579
REMARK  232  A    between atoms: _578  and  _581
REMARK  233  A    between atoms: _581  and  _582
REMARK  234  A    between atoms: _582  and  _583
REMARK  235  A    between atoms: _585  and  _587
REMARK  236  A    between atoms: _587  and  _588
REMARK  237  A    between atoms: _587  and  _590
REMARK  238  A    between atoms: _590  and  _591
REMARK  239  A    between atoms: _591  and  _592
REMARK  240  A    between atoms: _597  and  _599
REMARK  241  A    between atoms: _599  and  _600
REMARK  242  A    between atoms: _603  and  _605
REMARK  243  A    between atoms: _605  and  _606
REMARK  244  A    between atoms: _605  and  _608
REMARK  245  A    between atoms: _608  and  _609
REMARK  246  A    between atoms: _614  and  _616
REMARK  247  A    between atoms: _616  and  _617
REMARK  248  A    between atoms: _616  and  _619
REMARK  249  A    between atoms: _619  and  _620
REMARK  250  A    between atoms: _620  and  _621
REMARK  251  A    between atoms: _623  and  _625
REMARK  252  A    between atoms: _625  and  _626
REMARK  253  A    between atoms: _625  and  _628
REMARK  254  A    between atoms: _628  and  _629
REMARK  255  A    between atoms: _629  and  _630
REMARK  256  A    between atoms: _630  and  _631
REMARK  257  A    between atoms: _640  and  _642
REMARK  258  A    between atoms: _642  and  _643
REMARK  259  A    between atoms: _642  and  _645
REMARK  260  A    between atoms: _645  and  _646
REMARK  261  A    between atoms: _646  and  _647
REMARK  262  A    between atoms: _647  and  _648
REMARK  263  A    between atoms: _648  and  _649
REMARK  264  A    between atoms: _653  and  _655
REMARK  265  A    between atoms: _655  and  _656
REMARK  266  A    between atoms: _655  and  _658
REMARK  267  A    between atoms: _658  and  _659
REMARK  268  A    between atoms: _661  and  _663
REMARK  269  A    between atoms: _663  and  _664
REMARK  270  A    between atoms: _663  and  _666
REMARK  271  A    between atoms: _666  and  _667
REMARK  272  A    between atoms: _667  and  _668
REMARK  273  A    between atoms: _668  and  _669
REMARK  274  A    between atoms: _678  and  _680
REMARK  275  A    between atoms: _680  and  _681
REMARK  276  A    between atoms: _680  and  _683
REMARK  277  A    between atoms: _683  and  _684
REMARK  278  A    between atoms: _684  and  _685
REMARK  279  A    between atoms: _685  and  _686
REMARK  280  A    between atoms: _686  and  _687
REMARK  281  A    between atoms: _691  and  _693
REMARK  282  A    between atoms: _693  and  _694
REMARK  283  A    between atoms: _693  and  _696
REMARK  284  A    between atoms: _696  and  _697
REMARK  285  A    between atoms: _700  and  _702
REMARK  286  A    between atoms: _702  and  _703
REMARK  287  A    between atoms: _702  and  _705
REMARK  288  A    between atoms: _705  and  _706
REMARK                            x       y       z     vdW  Elec       q    Type
REMARK                         _______ _______ _______ _____ _____    ______ ____
ROOT
ATOM      1  CG  LYS A   1      26.642  23.041  67.060  0.00  0.00    -0.000 C 
ENDROOT
BRANCH   1   2
ATOM      2  CB  LYS A   1      26.511  24.395  67.721  0.00  0.00    +0.025 C 
BRANCH   2   3
ATOM      3  CA  LYS A   1      26.511  24.376  69.247  0.00  0.00    +0.133 C 
BRANCH   3   4
ATOM      4  N   LYS A   1      26.467  25.740  69.751  0.00  0.00    -0.239 NA
ATOM      5  H   LYS A   1      26.765  26.515  69.125  0.00  0.00    +0.142 HD
ENDBRANCH   3   4
BRANCH   3   6
ATOM      6  C   LYS A   1      27.741  23.626  69.769  0.00  0.00    +0.224 C 
ATOM      7  O   LYS A   1      27.638  22.502  70.254  0.00  0.00    -0.287 OA
ENDBRANCH   3   6
ENDBRANCH   2   3
ENDBRANCH   1   2
BRANCH   1   8
ATOM      8  CD  LYS A   1      27.046  23.218  65.606  0.00  0.00    -0.024 C 
BRANCH   8   9
ATOM      9  CE  LYS A   1      27.105  21.901  64.866  0.00  0.00    -0.086 C 
BRANCH   9  10
ATOM     10  NZ  LYS A   1      25.762  21.271  64.788  0.00  0.00    +0.380 N 
ATOM     11  HZ1 LYS A   1      25.405  21.097  65.749  0.00  0.00    -0.089 HD
ATOM     12  HZ2 LYS A   1      25.111  21.907  64.285  0.00  0.00    -0.089 HD
ATOM     13  HZ3 LYS A   1      25.833  20.369  64.275  0.00  0.00    -0.089 HD
ENDBRANCH   9  10
ENDBRANCH   8   9
ENDBRANCH   1   8
TORSDOF 7
REMARK  Name = ../refined-set-2016/3t6b/3t6b_pocket.pdb
REMARK  288 active torsions:
REMARK  status: ('A' for Active; 'I' for Inactive)
REMARK    1  A    between atoms: _1  and  _3
REMARK    2  A    between atoms: _3  and  _4
REMARK    3  A    between atoms: _6  and  _8
REMARK    4  A    between atoms: _8  and  _9
REMARK    5  A    between atoms: _8  and  _11
REMARK    6  A    between atoms: _11  and  _12
REMARK    7  A    between atoms: _14  and  _16
REMARK    8  A    between atoms: _16  and  _17
REMARK    9  A    between atoms: _16  and  _19
REMARK   10  A    between atoms: _19  and  _20
REMARK   11  A    between atoms: _23  and  _25
REMARK   12  A    between atoms: _25  and  _26
REMARK   13  A    between atoms: _25  and  _28
REMARK   14  A    between atoms: _28  and  _29
REMARK   15  A    between atoms: _31  and  _33
REMARK   16  A    between atoms: _33  and  _34
REMARK   17  A    between atoms: _33  and  _36
REMARK   18  A    between atoms: _36  and  _37
REMARK   19  A    between atoms: _43  and  _45
REMARK   20  A    between atoms: _45  and  _46
REMARK   21  A    between atoms: _45  and  _48
REMARK   22  A    between atoms: _48  and  _49
REMARK   23  A    between atoms: _54  and  _55
REMARK   24  A    between atoms: _57  and  _59
REMARK   25  A    between atoms: _59  and  _60
REMARK   26  A    between atoms: _59  and  _62
REMARK   27  A    between atoms: _62  and  _63
REMARK   28  A    between atoms: _66  and  _68
REMARK   29  A    between atoms: _68  and  _69
REMARK   30  A    between atoms: _68  and  _71
REMARK   31  A    between atoms: _71  and  _72
REMARK   32  A    between atoms: _72  and  _73
REMARK   33  A    between atoms: _76  and  _78
REMARK   34  A    between atoms: _78  and  _79
REMARK   35  A    between atoms: _78  and  _81
REMARK   36  A    between atoms: _81  and  _82
REMARK   37  A    between atoms: _84  and  _86
REMARK   38  A    between atoms: _86  and  _87
REMARK   39  A    between atoms: _86  and  _89
REMARK   40  A    between atoms: _89  and  _90
REMARK   41  A    between atoms: _95  and  _96
REMARK   42  A    between atoms: _98  and  _100
REMARK   43  A    between atoms: _100  and  _101
REMARK   44  A    between atoms: _100  and  _103
REMARK   45  A    between atoms: _103  and  _104
REMARK   46  A    between atoms: _104  and  _105
REMARK   47  A    between atoms: _108  and  _110
REMARK   48  A    between atoms: _110  and  _111
REMARK   49  A    between atoms: _110  and  _113
REMARK   50  A    between atoms: _113  and  _114
REMARK   51  A    between atoms: _120  and  _122
REMARK   52  A    between atoms: _122  and  _123
REMARK   53  A    between atoms: _122  and  _125
REMARK   54  A    between atoms: _125  and  _126
REMARK   55  A    between atoms: _128  and  _130
REMARK   56  A    between atoms: _130  and  _131
REMARK   57  A    between atoms: _133  and  _135
REMARK   58  A    between atoms: _135  and  _136
REMARK   59  A    between atoms: _135  and  _138
REMARK   60  A    between atoms: _138  and  _139
REMARK   61  A    between atoms: _143  and  _144
REMARK   62  A    between atoms: _149  and  _151
REMARK   63  A    between atoms: _151  and  _152
REMARK   64  A    between atoms: _155  and  _157
REMARK   65  A    between atoms: _157  and  _158
REMARK   66  A    between atoms: _160  and  _162
REMARK   67  A    between atoms: _162  and  _163
REMARK   68  A    between atoms: _162  and  _165
REMARK   69  A    between atoms: _165  and  _166
REMARK   70  A    between atoms: _169  and  _171
REMARK   71  A    between atoms: _171  and  _172
REMARK   72  A    between atoms: _171  and  _174
REMARK   73  A    between atoms: _174  and  _175
REMARK   74  A    between atoms: _180  and  _182
REMARK   75  A    between atoms: _182  and  _183
REMARK   76  A    between atoms: _182  and  _185
REMARK   77  A    between atoms: _185  and  _186
REMARK   78  A    between atoms: _190  and  _191
REMARK   79  A    between atoms: _196  and  _198
REMARK   80  A    between atoms: _198  and  _199
REMARK   81  A    between atoms: _198  and  _201
REMARK   82  A    between atoms: _201  and  _202
REMARK   83  A    between atoms: _207  and  _209
REMARK   84  A    between atoms: _209  and  _210
REMARK   85  A    between atoms: _209  and  _212
REMARK   86  A    between atoms: _212  and  _213
REMARK   87  A    between atoms: _218  and  _219
REMARK   88  A    between atoms: _221  and  _223
REMARK   89  A    between atoms: _223  and  _224
REMARK   90  A    between atoms: _223  and  _226
REMARK   91  A    between atoms: _226  and  _227
REMARK   92  A    between atoms: _230  and  _232
REMARK   93  A    between atoms: _232  and  _233
REMARK   94  A    between atoms: _232  and  _235
REMARK   95  A    between atoms: _235  and  _236
REMARK   96  A    between atoms: _236  and  _237
REMARK   97  A    between atoms: _237  and  _238
REMARK   98  A    between atoms: _247  and  _249
REMARK   99  A    between atoms: _249  and  _250
REMARK  100  A    between atoms: _249  and  _252
REMARK  101  A    between atoms: _252  and  _253
REMARK  102  A    between atoms: _253  and  _254
REMARK  103  A    between atoms: _254  and  _255
REMARK  104  A    between atoms: _255  and  _256
REMARK  105  A    between atoms: _260  and  _262
REMARK  106  A    between atoms: _262  and  _263
REMARK  107  A    between atoms: _262  and  _265
REMARK  108  A    between atoms: _265  and  _266
REMARK  109  A    between atoms: _271  and  _273
REMARK  110  A    between atoms: _273  and  _274
REMARK  111  A    between atoms: _273  and  _276
REMARK  112  A    between atoms: _279  and  _281
REMARK  113  A    between atoms: _281  and  _282
REMARK  114  A    between atoms: _281  and  _284
REMARK  115  A    between atoms: _284  and  _285
REMARK  116  A    between atoms: _288  and  _290
REMARK  117  A    between atoms: _290  and  _291
REMARK  118  A    between atoms: _290  and  _293
REMARK  119  A    between atoms: _296  and  _298
REMARK  120  A    between atoms: _298  and  _299
REMARK  121  A    between atoms: _298  and  _301
REMARK  122  A    between atoms: _301  and  _302
REMARK  123  A    between atoms: _305  and  _307
REMARK  124  A    between atoms: _307  and  _308
REMARK  125  A    between atoms: _311  and  _313
REMARK  126  A    between atoms: _313  and  _314
REMARK  127  A    between atoms: _313  and  _316
REMARK  128  A    between atoms: _319  and  _321
REMARK  129  A    between atoms: _321  and  _322
REMARK  130  A    between atoms: _325  and  _327
REMARK  131  A    between atoms: _327  and  _328
REMARK  132  A    between atoms: _331  and  _333
REMARK  133  A    between atoms: _333  and  _334
REMARK  134  A    between atoms: _333  and  _336
REMARK  135  A    between atoms: _336  and  _337
REMARK  136  A    between atoms: _342  and  _343
REMARK  137  A    between atoms: _345  and  _347
REMARK  138  A    between atoms: _347  and  _348
REMARK  139  A    between atoms: _347  and  _350
REMARK  140  A    between atoms: _350  and  _351
REMARK  141  A    between atoms: _351  and  _352
REMARK  142  A    between atoms: _352  and  _353
REMARK  143  A    between atoms: _353  and  _354
REMARK  144  A    between atoms: _358  and  _360
REMARK  145  A    between atoms: _360  and  _361
REMARK  146  A    between atoms: _360  and  _363
REMARK  147  A    between atoms: _363  and  _364
REMARK  148  A    between atoms: _366  and  _368
REMARK  149  A    between atoms: _368  and  _369
REMARK  150  A    between atoms: _368  and  _371
REMARK  151  A    between atoms: _371  and  _372
REMARK  152  A    between atoms: _378  and  _380
REMARK  153  A    between atoms: _380  and  _381
REMARK  154  A    between atoms: _380  and  _383
REMARK  155  A    between atoms: _383  and  _384
REMARK  156  A    between atoms: _387  and  _389
REMARK  157  A    between atoms: _389  and  _390
REMARK  158  A    between atoms: _389  and  _392
REMARK  159  A    between atoms: _395  and  _397
REMARK  160  A    between atoms: _397  and  _398
REMARK  161  A    between atoms: _397  and  _400
REMARK  162  A    between atoms: _400  and  _401
REMARK  163  A    between atoms: _401  and  _402
REMARK  164  A    between atoms: _407  and  _409
REMARK  165  A    between atoms: _409  and  _410
REMARK  166  A    between atoms: _409  and  _412
REMARK  167  A    between atoms: _415  and  _417
REMARK  168  A    between atoms: _417  and  _418
REMARK  169  A    between atoms: _420  and  _422
REMARK  170  A    between atoms: _422  and  _423
REMARK  171  A    between atoms: _422  and  _425
REMARK  172  A    between atoms: _425  and  _426
REMARK  173  A    between atoms: _429  and  _431
REMARK  174  A    between atoms: _431  and  _432
REMARK  175  A    between atoms: _431  and  _434
REMARK  176  A    between atoms: _434  and  _435
REMARK  177  A    between atoms: _440  and  _442
REMARK  178  A    between atoms: _442  and  _443
REMARK  179  A    between atoms: _446  and  _448
REMARK  180  A    between atoms: _448  and  _449
REMARK  181  A    between atoms: _448  and  _451
REMARK  182  A    between atoms: _451  and  _452
REMARK  183  A    between atoms: _457  and  _459
REMARK  184  A    between atoms: _459  and  _460
REMARK  185  A    between atoms: _459  and  _462
REMARK  186  A    between atoms: _462  and  _463
REMARK  187  A    between atoms: _473  and  _475
REMARK  188  A    between atoms: _475  and  _476
REMARK  189  A    between atoms: _475  and  _478
REMARK  190  A    between atoms: _478  and  _479
REMARK  191  A    between atoms: _482  and  _484
REMARK  192  A    between atoms: _484  and  _485
REMARK  193  A    between atoms: _488  and  _490
REMARK  194  A    between atoms: _490  and  _491
REMARK  195  A    between atoms: _490  and  _493
REMARK  196  A    between atoms: _493  and  _494
REMARK  197  A    between atoms: _496  and  _498
REMARK  198  A    between atoms: _498  and  _499
REMARK  199  A    between atoms: _498  and  _501
REMARK  200  A    between atoms: _501  and  _502
REMARK  201  A    between atoms: _502  and  _503
REMARK  202  A    between atoms: _506  and  _508
REMARK  203  A    between atoms: _508  and  _509
REMARK  204  A    between atoms: _508  and  _511
REMARK  205  A    between atoms: _511  and  _512
REMARK  206  A    between atoms: _512  and  _513
REMARK  207  A    between atoms: _516  and  _518
REMARK  208  A    between atoms: _518  and  _519
REMARK  209  A    between atoms: _518  and  _521
REMARK  210  A    between atoms: _521  and  _522
REMARK  211  A    between atoms: _522  and  _523
REMARK  212  A    between atoms: _523  and  _524
REMARK  213  A    between atoms: _533  and  _535
REMARK  214  A    between atoms: _535  and  _536
REMARK  215  A    between atoms: _539  and  _541
REMARK  216  A    between atoms: _541  and  _542
REMARK  217  A    between atoms: _541  and  _544
REMARK  218  A    between atoms: _544  and  _545
REMARK  219  A    between atoms: _545  and  _546
REMARK  220  A    between atoms: _549  and  _551
REMARK  221  A    between atoms: _551  and  _552
REMARK  222  A    between atoms: _554  and  _556
REMARK  223  A    between atoms: _556  and  _557
REMARK  224  A    between atoms: _556  and  _559
REMARK  225  A    between atoms: _559  and  _560
REMARK  226  A    between atoms: _565  and  _567
REMARK  227  A    between atoms: _567  and  _568
REMARK  228  A    between atoms: _567  and  _570
REMARK  229  A    between atoms: _570  and  _571
REMARK  230  A    between atoms: _576  and  _578
REMARK  231  A    between atoms: _578  and  _579
REMARK  232  A    between atoms: _578  and  _581
REMARK  233  A    between atoms: _581  and  _582
REMARK  234  A    between atoms: _582  and  _583
REMARK  235  A    between atoms: _585  and  _587
REMARK  236  A    between atoms: _587  and  _588
REMARK  237  A    between atoms: _587  and  _590
REMARK  238  A    between atoms: _590  and  _591
REMARK  239  A    between atoms: _591  and  _592
REMARK  240  A    between atoms: _597  and  _599
REMARK  241  A    between atoms: _599  and  _600
REMARK  242  A    between atoms: _603  and  _605
REMARK  243  A    between atoms: _605  and  _606
REMARK  244  A    between atoms: _605  and  _608
REMARK  245  A    between atoms: _608  and  _609
REMARK  246  A    between atoms: _614  and  _616
REMARK  247  A    between atoms: _616  and  _617
REMARK  248  A    between atoms: _616  and  _619
REMARK  249  A    between atoms: _619  and  _620
REMARK  250  A    between atoms: _620  and  _621
REMARK  251  A    between atoms: _623  and  _625
REMARK  252  A    between atoms: _625  and  _626
REMARK  253  A    between atoms: _625  and  _628
REMARK  254  A    between atoms: _628  and  _629
REMARK  255  A    between atoms: _629  and  _630
REMARK  256  A    between atoms: _630  and  _631
REMARK  257  A    between atoms: _640  and  _642
REMARK  258  A    between atoms: _642  and  _643
REMARK  259  A    between atoms: _642  and  _645
REMARK  260  A    between atoms: _645  and  _646
REMARK  261  A    between atoms: _646  and  _647
REMARK  262  A    between atoms: _647  and  _648
REMARK  263  A    between atoms: _648  and  _649
REMARK  264  A    between atoms: _653  and  _655
REMARK  265  A    between atoms: _655  and  _656
REMARK  266  A    between atoms: _655  and  _658
REMARK  267  A    between atoms: _658  and  _659
REMARK  268  A    between atoms: _661  and  _663
REMARK  269  A    between atoms: _663  and  _664
REMARK  270  A    between atoms: _663  and  _666
REMARK  271  A    between atoms: _666  and  _667
REMARK  272  A    between atoms: _667  and  _668
REMARK  273  A    between atoms: _668  and  _669
REMARK  274  A    between atoms: _678  and  _680
REMARK  275  A    between atoms: _680  and  _681
REMARK  276  A    between atoms: _680  and  _683
REMARK  277  A    between atoms: _683  and  _684
REMARK  278  A    between atoms: _684  and  _685
REMARK  279  A    between atoms: _685  and  _686
REMARK  280  A    between atoms: _686  and  _687
REMARK  281  A    between atoms: _691  and  _693
REMARK  282  A    between atoms: _693  and  _694
REMARK  283  A    between atoms: _693  and  _696
REMARK  284  A    between atoms: _696  and  _697
REMARK  285  A    between atoms: _700  and  _702
REMARK  286  A    between atoms: _702  and  _703
REMARK  287  A    between atoms: _702  and  _705
REMARK  288  A    between atoms: _705  and  _706
REMARK                            x       y       z     vdW  Elec       q    Type
REMARK                         _______ _______ _______ _____ _____    ______ ____
ROOT
ATOM      1  CA  LYS A   3       6.285  18.345  41.592  0.00  0.00    +0.149 C 
ENDROOT
BRANCH   1   2
ATOM      2  C   LYS A   3       6.697  16.980  42.122  0.00  0.00    +0.241 C 
ATOM      3  O   LYS A   3       7.445  16.862  43.098  0.00  0.00    -0.273 OA
ATOM      4  N   LEU A   4       6.193  15.948  41.456  0.00  0.00    -0.297 N 
ATOM      5  H   LEU A   4       5.509  16.132  40.695  0.00  0.00    +0.150 HD
BRANCH   4   6
ATOM      6  CA  LEU A   4       6.559  14.571  41.748  0.00  0.00    +0.149 C 
BRANCH   6   7
ATOM      7  C   LEU A   4       7.610  14.119  40.741  0.00  0.00    +0.241 C 
ATOM      8  N   ILE A   5       8.554  13.291  41.185  0.00  0.00    -0.298 N 
ATOM      9  H   ILE A   5       8.536  12.984  42.178  0.00  0.00    +0.150 HD
ATOM     10  O   LEU A   4       7.571  14.525  39.578  0.00  0.00    -0.273 OA
BRANCH   8  11
ATOM     11  CA  ILE A   5       9.613  12.806  40.307  0.00  0.00    +0.137 C 
BRANCH  11  12
ATOM     12  C   ILE A   5       9.531  11.294  40.065  0.00  0.00    +0.227 C 
ATOM     13  O   ILE A   5       9.369  10.513  41.007  0.00  0.00    -0.286 OA
ENDBRANCH  11  12
BRANCH  11  14
ATOM     14  CB  ILE A   5      11.002  13.140  40.872  0.00  0.00    +0.026 C 
ATOM     15  CG2 ILE A   5      12.098  12.648  39.933  0.00  0.00    +0.002 C 
BRANCH  14  16
ATOM     16  CG1 ILE A   5      11.132  14.646  41.109  0.00  0.00    +0.002 C 
ATOM     17  CD1 ILE A   5      12.492  15.053  41.643  0.00  0.00    +0.000 C 
ENDBRANCH  14  16
ENDBRANCH  11  14
ENDBRANCH   8  11
ENDBRANCH   6   7
BRANCH   6  18
ATOM     18  CB  LEU A   4       5.325  13.679  41.659  0.00  0.00    +0.029 C 
BRANCH  18  19
ATOM     19  CG  LEU A   4       4.150  14.102  42.540  0.00  0.00    +0.002 C 
ATOM     20  CD2 LEU A   4       4.532  14.025  44.006  0.00  0.00    +0.000 C 
ATOM     21  CD1 LEU A   4       2.920  13.251  42.254  0.00  0.00    +0.000 C 
ENDBRANCH  18  19
ENDBRANCH   6  18
ENDBRANCH   4   6
ENDBRANCH   1   2
BRANCH   1  24
ATOM     22  C   ARG A   2       5.539  19.384  43.660  0.00  0.00    +0.241 C 
ATOM     23  O   ARG A   2       4.728  18.485  43.885  0.00  0.00    -0.273 OA
ATOM     24  N   LYS A   3       6.336  19.395  42.599  0.00  0.00    -0.297 N 
ATOM     25  H   LYS A   3       7.015  20.174  42.484  0.00  0.00    +0.150 HD
BRANCH  22  26
ATOM     26  CA  ARG A   2       5.716  20.529  44.641  0.00  0.00    +0.149 C 
BRANCH  26  28
ATOM     27  C   SER A   1       3.620  21.738  44.271  0.00  0.00    +0.241 C 
ATOM     28  N   ARG A   2       4.437  21.084  45.098  0.00  0.00    -0.297 N 
ATOM     29  H   ARG A   2       4.160  20.964  46.093  0.00  0.00    +0.150 HD
ATOM     30  O   SER A   1       3.852  21.865  43.071  0.00  0.00    -0.274 OA
BRANCH  27  31
ATOM     31  CA  SER A   1       2.351  22.342  44.882  0.00  0.00    +0.174 C 
BRANCH  31  32
ATOM     32  N   SER A   1       2.084  23.695  44.393  0.00  0.00    -0.236 NA
ATOM     33  H   SER A   1       1.385  23.828  43.635  0.00  0.00    +0.142 HD
ENDBRANCH  31  32
BRANCH  31  34
ATOM     34  CB  SER A   1       1.138  21.447  44.610  0.00  0.00    +0.163 C 
BRANCH  34  35
ATOM     35  OG  SER A   1       1.146  20.301  45.442  0.00  0.00    -0.380 OA
ATOM     36  H   SER A   1       0.352  19.744  45.243  0.00  0.00    +0.211 HD
ENDBRANCH  34  35
ENDBRANCH  31  34
ENDBRANCH  27  31
ENDBRANCH  26  28
BRANCH  26  37
ATOM     37  CB  ARG A   2       6.542  19.998  45.810  0.00  0.00    +0.033 C 
BRANCH  37  38
ATOM     38  CG  ARG A   2       6.614  20.890  47.018  0.00  0.00    +0.045 C 
BRANCH  38  39
ATOM     39  CD  ARG A   2       7.805  20.490  47.871  0.00  0.00    +0.174 C 
BRANCH  39  40
ATOM     40  NE  ARG A   2       8.991  21.257  47.510  0.00  0.00    -0.265 N 
ATOM     41  CZ  ARG A   2      10.225  20.768  47.484  0.00  0.00    +0.342 C 
ATOM     42  NH2 ARG A   2      10.454  19.499  47.790  0.00  0.00    -0.292 N 
ATOM     43 HH21 ARG A   2       9.663  18.877  48.053  0.00  0.00    +0.255 HD
ATOM     44 HH22 ARG A   2      11.424  19.125  47.767  0.00  0.00    +0.255 HD
ATOM     45  NH1 ARG A   2      11.232  21.552  47.144  0.00  0.00    -0.292 N 
ATOM     46 HH11 ARG A   2      12.201  21.174  47.122  0.00  0.00    +0.255 HD
ATOM     47 HH12 ARG A   2      11.056  22.547  46.898  0.00  0.00    +0.255 HD
ATOM     48  HE  ARG A   2       8.861  22.257  47.255  0.00  0.00    +0.259 HD
ENDBRANCH  39  40
ENDBRANCH  38  39
ENDBRANCH  37  38
ENDBRANCH  26  37
ENDBRANCH  22  26
ENDBRANCH   1  24
BRANCH   1  49
ATOM     49  CB  LYS A   3       7.160  18.700  40.389  0.00  0.00    +0.029 C 
BRANCH  49  50
ATOM     50  CG  LYS A   3       8.648  18.776  40.686  0.00  0.00    +0.000 C 
BRANCH  50  51
ATOM     51  CD  LYS A   3       9.438  18.986  39.393  0.00  0.00    -0.024 C 
BRANCH  51  52
ATOM     52  CE  LYS A   3      10.812  19.588  39.653  0.00  0.00    -0.086 C 
BRANCH  52  53
ATOM     53  NZ  LYS A   3      11.629  18.783  40.605  0.00  0.00    +0.380 N 
ATOM     54  HZ1 LYS A   3      11.133  18.719  41.517  0.00  0.00    -0.089 HD
ATOM     55  HZ2 LYS A   3      12.552  19.242  40.742  0.00  0.00    -0.089 HD
ATOM     56  HZ3 LYS A   3      11.770  17.828  40.218  0.00  0.00    -0.089 HD
ENDBRANCH  52  53
ENDBRANCH  51  52
ENDBRANCH  50  51
ENDBRANCH  49  50
ENDBRANCH   1  49
TORSDOF 25
REMARK  Name = ../refined-set-2016/3t6b/3t6b_pocket.pdb
REMARK  288 active torsions:
REMARK  status: ('A' for Active; 'I' for Inactive)
REMARK    1  A    between atoms: _1  and  _3
REMARK    2  A    between atoms: _3  and  _4
REMARK    3  A    between atoms: _6  and  _8
REMARK    4  A    between atoms: _8  and  _9
REMARK    5  A    between atoms: _8  and  _11
REMARK    6  A    between atoms: _11  and  _12
REMARK    7  A    between atoms: _14  and  _16
REMARK    8  A    between atoms: _16  and  _17
REMARK    9  A    between atoms: _16  and  _19
REMARK   10  A    between atoms: _19  and  _20
REMARK   11  A    between atoms: _23  and  _25
REMARK   12  A    between atoms: _25  and  _26
REMARK   13  A    between atoms: _25  and  _28
REMARK   14  A    between atoms: _28  and  _29
REMARK   15  A    between atoms: _31  and  _33
REMARK   16  A    between atoms: _33  and  _34
REMARK   17  A    between atoms: _33  and  _36
REMARK   18  A    between atoms: _36  and  _37
REMARK   19  A    between atoms: _43  and  _45
REMARK   20  A    between atoms: _45  and  _46
REMARK   21  A    between atoms: _45  and  _48
REMARK   22  A    between atoms: _48  and  _49
REMARK   23  A    between atoms: _54  and  _55
REMARK   24  A    between atoms: _57  and  _59
REMARK   25  A    between atoms: _59  and  _60
REMARK   26  A    between atoms: _59  and  _62
REMARK   27  A    between atoms: _62  and  _63
REMARK   28  A    between atoms: _66  and  _68
REMARK   29  A    between atoms: _68  and  _69
REMARK   30  A    between atoms: _68  and  _71
REMARK   31  A    between atoms: _71  and  _72
REMARK   32  A    between atoms: _72  and  _73
REMARK   33  A    between atoms: _76  and  _78
REMARK   34  A    between atoms: _78  and  _79
REMARK   35  A    between atoms: _78  and  _81
REMARK   36  A    between atoms: _81  and  _82
REMARK   37  A    between atoms: _84  and  _86
REMARK   38  A    between atoms: _86  and  _87
REMARK   39  A    between atoms: _86  and  _89
REMARK   40  A    between atoms: _89  and  _90
REMARK   41  A    between atoms: _95  and  _96
REMARK   42  A    between atoms: _98  and  _100
REMARK   43  A    between atoms: _100  and  _101
REMARK   44  A    between atoms: _100  and  _103
REMARK   45  A    between atoms: _103  and  _104
REMARK   46  A    between atoms: _104  and  _105
REMARK   47  A    between atoms: _108  and  _110
REMARK   48  A    between atoms: _110  and  _111
REMARK   49  A    between atoms: _110  and  _113
REMARK   50  A    between atoms: _113  and  _114
REMARK   51  A    between atoms: _120  and  _122
REMARK   52  A    between atoms: _122  and  _123
REMARK   53  A    between atoms: _122  and  _125
REMARK   54  A    between atoms: _125  and  _126
REMARK   55  A    between atoms: _128  and  _130
REMARK   56  A    between atoms: _130  and  _131
REMARK   57  A    between atoms: _133  and  _135
REMARK   58  A    between atoms: _135  and  _136
REMARK   59  A    between atoms: _135  and  _138
REMARK   60  A    between atoms: _138  and  _139
REMARK   61  A    between atoms: _143  and  _144
REMARK   62  A    between atoms: _149  and  _151
REMARK   63  A    between atoms: _151  and  _152
REMARK   64  A    between atoms: _155  and  _157
REMARK   65  A    between atoms: _157  and  _158
REMARK   66  A    between atoms: _160  and  _162
REMARK   67  A    between atoms: _162  and  _163
REMARK   68  A    between atoms: _162  and  _165
REMARK   69  A    between atoms: _165  and  _166
REMARK   70  A    between atoms: _169  and  _171
REMARK   71  A    between atoms: _171  and  _172
REMARK   72  A    between atoms: _171  and  _174
REMARK   73  A    between atoms: _174  and  _175
REMARK   74  A    between atoms: _180  and  _182
REMARK   75  A    between atoms: _182  and  _183
REMARK   76  A    between atoms: _182  and  _185
REMARK   77  A    between atoms: _185  and  _186
REMARK   78  A    between atoms: _190  and  _191
REMARK   79  A    between atoms: _196  and  _198
REMARK   80  A    between atoms: _198  and  _199
REMARK   81  A    between atoms: _198  and  _201
REMARK   82  A    between atoms: _201  and  _202
REMARK   83  A    between atoms: _207  and  _209
REMARK   84  A    between atoms: _209  and  _210
REMARK   85  A    between atoms: _209  and  _212
REMARK   86  A    between atoms: _212  and  _213
REMARK   87  A    between atoms: _218  and  _219
REMARK   88  A    between atoms: _221  and  _223
REMARK   89  A    between atoms: _223  and  _224
REMARK   90  A    between atoms: _223  and  _226
REMARK   91  A    between atoms: _226  and  _227
REMARK   92  A    between atoms: _230  and  _232
REMARK   93  A    between atoms: _232  and  _233
REMARK   94  A    between atoms: _232  and  _235
REMARK   95  A    between atoms: _235  and  _236
REMARK   96  A    between atoms: _236  and  _237
REMARK   97  A    between atoms: _237  and  _238
REMARK   98  A    between atoms: _247  and  _249
REMARK   99  A    between atoms: _249  and  _250
REMARK  100  A    between atoms: _249  and  _252
REMARK  101  A    between atoms: _252  and  _253
REMARK  102  A    between atoms: _253  and  _254
REMARK  103  A    between atoms: _254  and  _255
REMARK  104  A    between atoms: _255  and  _256
REMARK  105  A    between atoms: _260  and  _262
REMARK  106  A    between atoms: _262  and  _263
REMARK  107  A    between atoms: _262  and  _265
REMARK  108  A    between atoms: _265  and  _266
REMARK  109  A    between atoms: _271  and  _273
REMARK  110  A    between atoms: _273  and  _274
REMARK  111  A    between atoms: _273  and  _276
REMARK  112  A    between atoms: _279  and  _281
REMARK  113  A    between atoms: _281  and  _282
REMARK  114  A    between atoms: _281  and  _284
REMARK  115  A    between atoms: _284  and  _285
REMARK  116  A    between atoms: _288  and  _290
REMARK  117  A    between atoms: _290  and  _291
REMARK  118  A    between atoms: _290  and  _293
REMARK  119  A    between atoms: _296  and  _298
REMARK  120  A    between atoms: _298  and  _299
REMARK  121  A    between atoms: _298  and  _301
REMARK  122  A    between atoms: _301  and  _302
REMARK  123  A    between atoms: _305  and  _307
REMARK  124  A    between atoms: _307  and  _308
REMARK  125  A    between atoms: _311  and  _313
REMARK  126  A    between atoms: _313  and  _314
REMARK  127  A    between atoms: _313  and  _316
REMARK  128  A    between atoms: _319  and  _321
REMARK  129  A    between atoms: _321  and  _322
REMARK  130  A    between atoms: _325  and  _327
REMARK  131  A    between atoms: _327  and  _328
REMARK  132  A    between atoms: _331  and  _333
REMARK  133  A    between atoms: _333  and  _334
REMARK  134  A    between atoms: _333  and  _336
REMARK  135  A    between atoms: _336  and  _337
REMARK  136  A    between atoms: _342  and  _343
REMARK  137  A    between atoms: _345  and  _347
REMARK  138  A    between atoms: _347  and  _348
REMARK  139  A    between atoms: _347  and  _350
REMARK  140  A    between atoms: _350  and  _351
REMARK  141  A    between atoms: _351  and  _352
REMARK  142  A    between atoms: _352  and  _353
REMARK  143  A    between atoms: _353  and  _354
REMARK  144  A    between atoms: _358  and  _360
REMARK  145  A    between atoms: _360  and  _361
REMARK  146  A    between atoms: _360  and  _363
REMARK  147  A    between atoms: _363  and  _364
REMARK  148  A    between atoms: _366  and  _368
REMARK  149  A    between atoms: _368  and  _369
REMARK  150  A    between atoms: _368  and  _371
REMARK  151  A    between atoms: _371  and  _372
REMARK  152  A    between atoms: _378  and  _380
REMARK  153  A    between atoms: _380  and  _381
REMARK  154  A    between atoms: _380  and  _383
REMARK  155  A    between atoms: _383  and  _384
REMARK  156  A    between atoms: _387  and  _389
REMARK  157  A    between atoms: _389  and  _390
REMARK  158  A    between atoms: _389  and  _392
REMARK  159  A    between atoms: _395  and  _397
REMARK  160  A    between atoms: _397  and  _398
REMARK  161  A    between atoms: _397  and  _400
REMARK  162  A    between atoms: _400  and  _401
REMARK  163  A    between atoms: _401  and  _402
REMARK  164  A    between atoms: _407  and  _409
REMARK  165  A    between atoms: _409  and  _410
REMARK  166  A    between atoms: _409  and  _412
REMARK  167  A    between atoms: _415  and  _417
REMARK  168  A    between atoms: _417  and  _418
REMARK  169  A    between atoms: _420  and  _422
REMARK  170  A    between atoms: _422  and  _423
REMARK  171  A    between atoms: _422  and  _425
REMARK  172  A    between atoms: _425  and  _426
REMARK  173  A    between atoms: _429  and  _431
REMARK  174  A    between atoms: _431  and  _432
REMARK  175  A    between atoms: _431  and  _434
REMARK  176  A    between atoms: _434  and  _435
REMARK  177  A    between atoms: _440  and  _442
REMARK  178  A    between atoms: _442  and  _443
REMARK  179  A    between atoms: _446  and  _448
REMARK  180  A    between atoms: _448  and  _449
REMARK  181  A    between atoms: _448  and  _451
REMARK  182  A    between atoms: _451  and  _452
REMARK  183  A    between atoms: _457  and  _459
REMARK  184  A    between atoms: _459  and  _460
REMARK  185  A    between atoms: _459  and  _462
REMARK  186  A    between atoms: _462  and  _463
REMARK  187  A    between atoms: _473  and  _475
REMARK  188  A    between atoms: _475  and  _476
REMARK  189  A    between atoms: _475  and  _478
REMARK  190  A    between atoms: _478  and  _479
REMARK  191  A    between atoms: _482  and  _484
REMARK  192  A    between atoms: _484  and  _485
REMARK  193  A    between atoms: _488  and  _490
REMARK  194  A    between atoms: _490  and  _491
REMARK  195  A    between atoms: _490  and  _493
REMARK  196  A    between atoms: _493  and  _494
REMARK  197  A    between atoms: _496  and  _498
REMARK  198  A    between atoms: _498  and  _499
REMARK  199  A    between atoms: _498  and  _501
REMARK  200  A    between atoms: _501  and  _502
REMARK  201  A    between atoms: _502  and  _503
REMARK  202  A    between atoms: _506  and  _508
REMARK  203  A    between atoms: _508  and  _509
REMARK  204  A    between atoms: _508  and  _511
REMARK  205  A    between atoms: _511  and  _512
REMARK  206  A    between atoms: _512  and  _513
REMARK  207  A    between atoms: _516  and  _518
REMARK  208  A    between atoms: _518  and  _519
REMARK  209  A    between atoms: _518  and  _521
REMARK  210  A    between atoms: _521  and  _522
REMARK  211  A    between atoms: _522  and  _523
REMARK  212  A    between atoms: _523  and  _524
REMARK  213  A    between atoms: _533  and  _535
REMARK  214  A    between atoms: _535  and  _536
REMARK  215  A    between atoms: _539  and  _541
REMARK  216  A    between atoms: _541  and  _542
REMARK  217  A    between atoms: _541  and  _544
REMARK  218  A    between atoms: _544  and  _545
REMARK  219  A    between atoms: _545  and  _546
REMARK  220  A    between atoms: _549  and  _551
REMARK  221  A    between atoms: _551  and  _552
REMARK  222  A    between atoms: _554  and  _556
REMARK  223  A    between atoms: _556  and  _557
REMARK  224  A    between atoms: _556  and  _559
REMARK  225  A    between atoms: _559  and  _560
REMARK  226  A    between atoms: _565  and  _567
REMARK  227  A    between atoms: _567  and  _568
REMARK  228  A    between atoms: _567  and  _570
REMARK  229  A    between atoms: _570  and  _571
REMARK  230  A    between atoms: _576  and  _578
REMARK  231  A    between atoms: _578  and  _579
REMARK  232  A    between atoms: _578  and  _581
REMARK  233  A    between atoms: _581  and  _582
REMARK  234  A    between atoms: _582  and  _583
REMARK  235  A    between atoms: _585  and  _587
REMARK  236  A    between atoms: _587  and  _588
REMARK  237  A    between atoms: _587  and  _590
REMARK  238  A    between atoms: _590  and  _591
REMARK  239  A    between atoms: _591  and  _592
REMARK  240  A    between atoms: _597  and  _599
REMARK  241  A    between atoms: _599  and  _600
REMARK  242  A    between atoms: _603  and  _605
REMARK  243  A    between atoms: _605  and  _606
REMARK  244  A    between atoms: _605  and  _608
REMARK  245  A    between atoms: _608  and  _609
REMARK  246  A    between atoms: _614  and  _616
REMARK  247  A    between atoms: _616  and  _617
REMARK  248  A    between atoms: _616  and  _619
REMARK  249  A    between atoms: _619  and  _620
REMARK  250  A    between atoms: _620  and  _621
REMARK  251  A    between atoms: _623  and  _625
REMARK  252  A    between atoms: _625  and  _626
REMARK  253  A    between atoms: _625  and  _628
REMARK  254  A    between atoms: _628  and  _629
REMARK  255  A    between atoms: _629  and  _630
REMARK  256  A    between atoms: _630  and  _631
REMARK  257  A    between atoms: _640  and  _642
REMARK  258  A    between atoms: _642  and  _643
REMARK  259  A    between atoms: _642  and  _645
REMARK  260  A    between atoms: _645  and  _646
REMARK  261  A    between atoms: _646  and  _647
REMARK  262  A    between atoms: _647  and  _648
REMARK  263  A    between atoms: _648  and  _649
REMARK  264  A    between atoms: _653  and  _655
REMARK  265  A    between atoms: _655  and  _656
REMARK  266  A    between atoms: _655  and  _658
REMARK  267  A    between atoms: _658  and  _659
REMARK  268  A    between atoms: _661  and  _663
REMARK  269  A    between atoms: _663  and  _664
REMARK  270  A    between atoms: _663  and  _666
REMARK  271  A    between atoms: _666  and  _667
REMARK  272  A    between atoms: _667  and  _668
REMARK  273  A    between atoms: _668  and  _669
REMARK  274  A    between atoms: _678  and  _680
REMARK  275  A    between atoms: _680  and  _681
REMARK  276  A    between atoms: _680  and  _683
REMARK  277  A    between atoms: _683  and  _684
REMARK  278  A    between atoms: _684  and  _685
REMARK  279  A    between atoms: _685  and  _686
REMARK  280  A    between atoms: _686  and  _687
REMARK  281  A    between atoms: _691  and  _693
REMARK  282  A    between atoms: _693  and  _694
REMARK  283  A    between atoms: _693  and  _696
REMARK  284  A    between atoms: _696  and  _697
REMARK  285  A    between atoms: _700  and  _702
REMARK  286  A    between atoms: _702  and  _703
REMARK  287  A    between atoms: _702  and  _705
REMARK  288  A    between atoms: _705  and  _706
REMARK                            x       y       z     vdW  Elec       q    Type
REMARK                         _______ _______ _______ _____ _____    ______ ____
ROOT
ATOM      1  O   HOH     1      14.268  17.965  48.002  0.00  0.00    +0.000 OA
ENDROOT
TORSDOF 0
REMARK  Name = ../refined-set-2016/3t6b/3t6b_pocket.pdb
REMARK  288 active torsions:
REMARK  status: ('A' for Active; 'I' for Inactive)
REMARK    1  A    between atoms: _1  and  _3
REMARK    2  A    between atoms: _3  and  _4
REMARK    3  A    between atoms: _6  and  _8
REMARK    4  A    between atoms: _8  and  _9
REMARK    5  A    between atoms: _8  and  _11
REMARK    6  A    between atoms: _11  and  _12
REMARK    7  A    between atoms: _14  and  _16
REMARK    8  A    between atoms: _16  and  _17
REMARK    9  A    between atoms: _16  and  _19
REMARK   10  A    between atoms: _19  and  _20
REMARK   11  A    between atoms: _23  and  _25
REMARK   12  A    between atoms: _25  and  _26
REMARK   13  A    between atoms: _25  and  _28
REMARK   14  A    between atoms: _28  and  _29
REMARK   15  A    between atoms: _31  and  _33
REMARK   16  A    between atoms: _33  and  _34
REMARK   17  A    between atoms: _33  and  _36
REMARK   18  A    between atoms: _36  and  _37
REMARK   19  A    between atoms: _43  and  _45
REMARK   20  A    between atoms: _45  and  _46
REMARK   21  A    between atoms: _45  and  _48
REMARK   22  A    between atoms: _48  and  _49
REMARK   23  A    between atoms: _54  and  _55
REMARK   24  A    between atoms: _57  and  _59
REMARK   25  A    between atoms: _59  and  _60
REMARK   26  A    between atoms: _59  and  _62
REMARK   27  A    between atoms: _62  and  _63
REMARK   28  A    between atoms: _66  and  _68
REMARK   29  A    between atoms: _68  and  _69
REMARK   30  A    between atoms: _68  and  _71
REMARK   31  A    between atoms: _71  and  _72
REMARK   32  A    between atoms: _72  and  _73
REMARK   33  A    between atoms: _76  and  _78
REMARK   34  A    between atoms: _78  and  _79
REMARK   35  A    between atoms: _78  and  _81
REMARK   36  A    between atoms: _81  and  _82
REMARK   37  A    between atoms: _84  and  _86
REMARK   38  A    between atoms: _86  and  _87
REMARK   39  A    between atoms: _86  and  _89
REMARK   40  A    between atoms: _89  and  _90
REMARK   41  A    between atoms: _95  and  _96
REMARK   42  A    between atoms: _98  and  _100
REMARK   43  A    between atoms: _100  and  _101
REMARK   44  A    between atoms: _100  and  _103
REMARK   45  A    between atoms: _103  and  _104
REMARK   46  A    between atoms: _104  and  _105
REMARK   47  A    between atoms: _108  and  _110
REMARK   48  A    between atoms: _110  and  _111
REMARK   49  A    between atoms: _110  and  _113
REMARK   50  A    between atoms: _113  and  _114
REMARK   51  A    between atoms: _120  and  _122
REMARK   52  A    between atoms: _122  and  _123
REMARK   53  A    between atoms: _122  and  _125
REMARK   54  A    between atoms: _125  and  _126
REMARK   55  A    between atoms: _128  and  _130
REMARK   56  A    between atoms: _130  and  _131
REMARK   57  A    between atoms: _133  and  _135
REMARK   58  A    between atoms: _135  and  _136
REMARK   59  A    between atoms: _135  and  _138
REMARK   60  A    between atoms: _138  and  _139
REMARK   61  A    between atoms: _143  and  _144
REMARK   62  A    between atoms: _149  and  _151
REMARK   63  A    between atoms: _151  and  _152
REMARK   64  A    between atoms: _155  and  _157
REMARK   65  A    between atoms: _157  and  _158
REMARK   66  A    between atoms: _160  and  _162
REMARK   67  A    between atoms: _162  and  _163
REMARK   68  A    between atoms: _162  and  _165
REMARK   69  A    between atoms: _165  and  _166
REMARK   70  A    between atoms: _169  and  _171
REMARK   71  A    between atoms: _171  and  _172
REMARK   72  A    between atoms: _171  and  _174
REMARK   73  A    between atoms: _174  and  _175
REMARK   74  A    between atoms: _180  and  _182
REMARK   75  A    between atoms: _182  and  _183
REMARK   76  A    between atoms: _182  and  _185
REMARK   77  A    between atoms: _185  and  _186
REMARK   78  A    between atoms: _190  and  _191
REMARK   79  A    between atoms: _196  and  _198
REMARK   80  A    between atoms: _198  and  _199
REMARK   81  A    between atoms: _198  and  _201
REMARK   82  A    between atoms: _201  and  _202
REMARK   83  A    between atoms: _207  and  _209
REMARK   84  A    between atoms: _209  and  _210
REMARK   85  A    between atoms: _209  and  _212
REMARK   86  A    between atoms: _212  and  _213
REMARK   87  A    between atoms: _218  and  _219
REMARK   88  A    between atoms: _221  and  _223
REMARK   89  A    between atoms: _223  and  _224
REMARK   90  A    between atoms: _223  and  _226
REMARK   91  A    between atoms: _226  and  _227
REMARK   92  A    between atoms: _230  and  _232
REMARK   93  A    between atoms: _232  and  _233
REMARK   94  A    between atoms: _232  and  _235
REMARK   95  A    between atoms: _235  and  _236
REMARK   96  A    between atoms: _236  and  _237
REMARK   97  A    between atoms: _237  and  _238
REMARK   98  A    between atoms: _247  and  _249
REMARK   99  A    between atoms: _249  and  _250
REMARK  100  A    between atoms: _249  and  _252
REMARK  101  A    between atoms: _252  and  _253
REMARK  102  A    between atoms: _253  and  _254
REMARK  103  A    between atoms: _254  and  _255
REMARK  104  A    between atoms: _255  and  _256
REMARK  105  A    between atoms: _260  and  _262
REMARK  106  A    between atoms: _262  and  _263
REMARK  107  A    between atoms: _262  and  _265
REMARK  108  A    between atoms: _265  and  _266
REMARK  109  A    between atoms: _271  and  _273
REMARK  110  A    between atoms: _273  and  _274
REMARK  111  A    between atoms: _273  and  _276
REMARK  112  A    between atoms: _279  and  _281
REMARK  113  A    between atoms: _281  and  _282
REMARK  114  A    between atoms: _281  and  _284
REMARK  115  A    between atoms: _284  and  _285
REMARK  116  A    between atoms: _288  and  _290
REMARK  117  A    between atoms: _290  and  _291
REMARK  118  A    between atoms: _290  and  _293
REMARK  119  A    between atoms: _296  and  _298
REMARK  120  A    between atoms: _298  and  _299
REMARK  121  A    between atoms: _298  and  _301
REMARK  122  A    between atoms: _301  and  _302
REMARK  123  A    between atoms: _305  and  _307
REMARK  124  A    between atoms: _307  and  _308
REMARK  125  A    between atoms: _311  and  _313
REMARK  126  A    between atoms: _313  and  _314
REMARK  127  A    between atoms: _313  and  _316
REMARK  128  A    between atoms: _319  and  _321
REMARK  129  A    between atoms: _321  and  _322
REMARK  130  A    between atoms: _325  and  _327
REMARK  131  A    between atoms: _327  and  _328
REMARK  132  A    between atoms: _331  and  _333
REMARK  133  A    between atoms: _333  and  _334
REMARK  134  A    between atoms: _333  and  _336
REMARK  135  A    between atoms: _336  and  _337
REMARK  136  A    between atoms: _342  and  _343
REMARK  137  A    between atoms: _345  and  _347
REMARK  138  A    between atoms: _347  and  _348
REMARK  139  A    between atoms: _347  and  _350
REMARK  140  A    between atoms: _350  and  _351
REMARK  141  A    between atoms: _351  and  _352
REMARK  142  A    between atoms: _352  and  _353
REMARK  143  A    between atoms: _353  and  _354
REMARK  144  A    between atoms: _358  and  _360
REMARK  145  A    between atoms: _360  and  _361
REMARK  146  A    between atoms: _360  and  _363
REMARK  147  A    between atoms: _363  and  _364
REMARK  148  A    between atoms: _366  and  _368
REMARK  149  A    between atoms: _368  and  _369
REMARK  150  A    between atoms: _368  and  _371
REMARK  151  A    between atoms: _371  and  _372
REMARK  152  A    between atoms: _378  and  _380
REMARK  153  A    between atoms: _380  and  _381
REMARK  154  A    between atoms: _380  and  _383
REMARK  155  A    between atoms: _383  and  _384
REMARK  156  A    between atoms: _387  and  _389
REMARK  157  A    between atoms: _389  and  _390
REMARK  158  A    between atoms: _389  and  _392
REMARK  159  A    between atoms: _395  and  _397
REMARK  160  A    between atoms: _397  and  _398
REMARK  161  A    between atoms: _397  and  _400
REMARK  162  A    between atoms: _400  and  _401
REMARK  163  A    between atoms: _401  and  _402
REMARK  164  A    between atoms: _407  and  _409
REMARK  165  A    between atoms: _409  and  _410
REMARK  166  A    between atoms: _409  and  _412
REMARK  167  A    between atoms: _415  and  _417
REMARK  168  A    between atoms: _417  and  _418
REMARK  169  A    between atoms: _420  and  _422
REMARK  170  A    between atoms: _422  and  _423
REMARK  171  A    between atoms: _422  and  _425
REMARK  172  A    between atoms: _425  and  _426
REMARK  173  A    between atoms: _429  and  _431
REMARK  174  A    between atoms: _431  and  _432
REMARK  175  A    between atoms: _431  and  _434
REMARK  176  A    between atoms: _434  and  _435
REMARK  177  A    between atoms: _440  and  _442
REMARK  178  A    between atoms: _442  and  _443
REMARK  179  A    between atoms: _446  and  _448
REMARK  180  A    between atoms: _448  and  _449
REMARK  181  A    between atoms: _448  and  _451
REMARK  182  A    between atoms: _451  and  _452
REMARK  183  A    between atoms: _457  and  _459
REMARK  184  A    between atoms: _459  and  _460
REMARK  185  A    between atoms: _459  and  _462
REMARK  186  A    between atoms: _462  and  _463
REMARK  187  A    between atoms: _473  and  _475
REMARK  188  A    between atoms: _475  and  _476
REMARK  189  A    between atoms: _475  and  _478
REMARK  190  A    between atoms: _478  and  _479
REMARK  191  A    between atoms: _482  and  _484
REMARK  192  A    between atoms: _484  and  _485
REMARK  193  A    between atoms: _488  and  _490
REMARK  194  A    between atoms: _490  and  _491
REMARK  195  A    between atoms: _490  and  _493
REMARK  196  A    between atoms: _493  and  _494
REMARK  197  A    between atoms: _496  and  _498
REMARK  198  A    between atoms: _498  and  _499
REMARK  199  A    between atoms: _498  and  _501
REMARK  200  A    between atoms: _501  and  _502
REMARK  201  A    between atoms: _502  and  _503
REMARK  202  A    between atoms: _506  and  _508
REMARK  203  A    between atoms: _508  and  _509
REMARK  204  A    between atoms: _508  and  _511
REMARK  205  A    between atoms: _511  and  _512
REMARK  206  A    between atoms: _512  and  _513
REMARK  207  A    between atoms: _516  and  _518
REMARK  208  A    between atoms: _518  and  _519
REMARK  209  A    between atoms: _518  and  _521
REMARK  210  A    between atoms: _521  and  _522
REMARK  211  A    between atoms: _522  and  _523
REMARK  212  A    between atoms: _523  and  _524
REMARK  213  A    between atoms: _533  and  _535
REMARK  214  A    between atoms: _535  and  _536
REMARK  215  A    between atoms: _539  and  _541
REMARK  216  A    between atoms: _541  and  _542
REMARK  217  A    between atoms: _541  and  _544
REMARK  218  A    between atoms: _544  and  _545
REMARK  219  A    between atoms: _545  and  _546
REMARK  220  A    between atoms: _549  and  _551
REMARK  221  A    between atoms: _551  and  _552
REMARK  222  A    between atoms: _554  and  _556
REMARK  223  A    between atoms: _556  and  _557
REMARK  224  A    between atoms: _556  and  _559
REMARK  225  A    between atoms: _559  and  _560
REMARK  226  A    between atoms: _565  and  _567
REMARK  227  A    between atoms: _567  and  _568
REMARK  228  A    between atoms: _567  and  _570
REMARK  229  A    between atoms: _570  and  _571
REMARK  230  A    between atoms: _576  and  _578
REMARK  231  A    between atoms: _578  and  _579
REMARK  232  A    between atoms: _578  and  _581
REMARK  233  A    between atoms: _581  and  _582
REMARK  234  A    between atoms: _582  and  _583
REMARK  235  A    between atoms: _585  and  _587
REMARK  236  A    between atoms: _587  and  _588
REMARK  237  A    between atoms: _587  and  _590
REMARK  238  A    between atoms: _590  and  _591
REMARK  239  A    between atoms: _591  and  _592
REMARK  240  A    between atoms: _597  and  _599
REMARK  241  A    between atoms: _599  and  _600
REMARK  242  A    between atoms: _603  and  _605
REMARK  243  A    between atoms: _605  and  _606
REMARK  244  A    between atoms: _605  and  _608
REMARK  245  A    between atoms: _608  and  _609
REMARK  246  A    between atoms: _614  and  _616
REMARK  247  A    between atoms: _616  and  _617
REMARK  248  A    between atoms: _616  and  _619
REMARK  249  A    between atoms: _619  and  _620
REMARK  250  A    between atoms: _620  and  _621
REMARK  251  A    between atoms: _623  and  _625
REMARK  252  A    between atoms: _625  and  _626
REMARK  253  A    between atoms: _625  and  _628
REMARK  254  A    between atoms: _628  and  _629
REMARK  255  A    between atoms: _629  and  _630
REMARK  256  A    between atoms: _630  and  _631
REMARK  257  A    between atoms: _640  and  _642
REMARK  258  A    between atoms: _642  and  _643
REMARK  259  A    between atoms: _642  and  _645
REMARK  260  A    between atoms: _645  and  _646
REMARK  261  A    between atoms: _646  and  _647
REMARK  262  A    between atoms: _647  and  _648
REMARK  263  A    between atoms: _648  and  _649
REMARK  264  A    between atoms: _653  and  _655
REMARK  265  A    between atoms: _655  and  _656
REMARK  266  A    between atoms: _655  and  _658
REMARK  267  A    between atoms: _658  and  _659
REMARK  268  A    between atoms: _661  and  _663
REMARK  269  A    between atoms: _663  and  _664
REMARK  270  A    between atoms: _663  and  _666
REMARK  271  A    between atoms: _666  and  _667
REMARK  272  A    between atoms: _667  and  _668
REMARK  273  A    between atoms: _668  and  _669
REMARK  274  A    between atoms: _678  and  _680
REMARK  275  A    between atoms: _680  and  _681
REMARK  276  A    between atoms: _680  and  _683
REMARK  277  A    between atoms: _683  and  _684
REMARK  278  A    between atoms: _684  and  _685
REMARK  279  A    between atoms: _685  and  _686
REMARK  280  A    between atoms: _686  and  _687
REMARK  281  A    between atoms: _691  and  _693
REMARK  282  A    between atoms: _693  and  _694
REMARK  283  A    between atoms: _693  and  _696
REMARK  284  A    between atoms: _696  and  _697
REMARK  285  A    between atoms: _700  and  _702
REMARK  286  A    between atoms: _702  and  _703
REMARK  287  A    between atoms: _702  and  _705
REMARK  288  A    between atoms: _705  and  _706
REMARK                            x       y       z     vdW  Elec       q    Type
REMARK                         _______ _______ _______ _____ _____    ______ ____
ROOT
ATOM      1  O   HOH     1       9.085  13.194  47.258  0.00  0.00    +0.000 OA
ENDROOT
TORSDOF 0
REMARK  Name = ../refined-set-2016/3t6b/3t6b_pocket.pdb
REMARK  288 active torsions:
REMARK  status: ('A' for Active; 'I' for Inactive)
REMARK    1  A    between atoms: _1  and  _3
REMARK    2  A    between atoms: _3  and  _4
REMARK    3  A    between atoms: _6  and  _8
REMARK    4  A    between atoms: _8  and  _9
REMARK    5  A    between atoms: _8  and  _11
REMARK    6  A    between atoms: _11  and  _12
REMARK    7  A    between atoms: _14  and  _16
REMARK    8  A    between atoms: _16  and  _17
REMARK    9  A    between atoms: _16  and  _19
REMARK   10  A    between atoms: _19  and  _20
REMARK   11  A    between atoms: _23  and  _25
REMARK   12  A    between atoms: _25  and  _26
REMARK   13  A    between atoms: _25  and  _28
REMARK   14  A    between atoms: _28  and  _29
REMARK   15  A    between atoms: _31  and  _33
REMARK   16  A    between atoms: _33  and  _34
REMARK   17  A    between atoms: _33  and  _36
REMARK   18  A    between atoms: _36  and  _37
REMARK   19  A    between atoms: _43  and  _45
REMARK   20  A    between atoms: _45  and  _46
REMARK   21  A    between atoms: _45  and  _48
REMARK   22  A    between atoms: _48  and  _49
REMARK   23  A    between atoms: _54  and  _55
REMARK   24  A    between atoms: _57  and  _59
REMARK   25  A    between atoms: _59  and  _60
REMARK   26  A    between atoms: _59  and  _62
REMARK   27  A    between atoms: _62  and  _63
REMARK   28  A    between atoms: _66  and  _68
REMARK   29  A    between atoms: _68  and  _69
REMARK   30  A    between atoms: _68  and  _71
REMARK   31  A    between atoms: _71  and  _72
REMARK   32  A    between atoms: _72  and  _73
REMARK   33  A    between atoms: _76  and  _78
REMARK   34  A    between atoms: _78  and  _79
REMARK   35  A    between atoms: _78  and  _81
REMARK   36  A    between atoms: _81  and  _82
REMARK   37  A    between atoms: _84  and  _86
REMARK   38  A    between atoms: _86  and  _87
REMARK   39  A    between atoms: _86  and  _89
REMARK   40  A    between atoms: _89  and  _90
REMARK   41  A    between atoms: _95  and  _96
REMARK   42  A    between atoms: _98  and  _100
REMARK   43  A    between atoms: _100  and  _101
REMARK   44  A    between atoms: _100  and  _103
REMARK   45  A    between atoms: _103  and  _104
REMARK   46  A    between atoms: _104  and  _105
REMARK   47  A    between atoms: _108  and  _110
REMARK   48  A    between atoms: _110  and  _111
REMARK   49  A    between atoms: _110  and  _113
REMARK   50  A    between atoms: _113  and  _114
REMARK   51  A    between atoms: _120  and  _122
REMARK   52  A    between atoms: _122  and  _123
REMARK   53  A    between atoms: _122  and  _125
REMARK   54  A    between atoms: _125  and  _126
REMARK   55  A    between atoms: _128  and  _130
REMARK   56  A    between atoms: _130  and  _131
REMARK   57  A    between atoms: _133  and  _135
REMARK   58  A    between atoms: _135  and  _136
REMARK   59  A    between atoms: _135  and  _138
REMARK   60  A    between atoms: _138  and  _139
REMARK   61  A    between atoms: _143  and  _144
REMARK   62  A    between atoms: _149  and  _151
REMARK   63  A    between atoms: _151  and  _152
REMARK   64  A    between atoms: _155  and  _157
REMARK   65  A    between atoms: _157  and  _158
REMARK   66  A    between atoms: _160  and  _162
REMARK   67  A    between atoms: _162  and  _163
REMARK   68  A    between atoms: _162  and  _165
REMARK   69  A    between atoms: _165  and  _166
REMARK   70  A    between atoms: _169  and  _171
REMARK   71  A    between atoms: _171  and  _172
REMARK   72  A    between atoms: _171  and  _174
REMARK   73  A    between atoms: _174  and  _175
REMARK   74  A    between atoms: _180  and  _182
REMARK   75  A    between atoms: _182  and  _183
REMARK   76  A    between atoms: _182  and  _185
REMARK   77  A    between atoms: _185  and  _186
REMARK   78  A    between atoms: _190  and  _191
REMARK   79  A    between atoms: _196  and  _198
REMARK   80  A    between atoms: _198  and  _199
REMARK   81  A    between atoms: _198  and  _201
REMARK   82  A    between atoms: _201  and  _202
REMARK   83  A    between atoms: _207  and  _209
REMARK   84  A    between atoms: _209  and  _210
REMARK   85  A    between atoms: _209  and  _212
REMARK   86  A    between atoms: _212  and  _213
REMARK   87  A    between atoms: _218  and  _219
REMARK   88  A    between atoms: _221  and  _223
REMARK   89  A    between atoms: _223  and  _224
REMARK   90  A    between atoms: _223  and  _226
REMARK   91  A    between atoms: _226  and  _227
REMARK   92  A    between atoms: _230  and  _232
REMARK   93  A    between atoms: _232  and  _233
REMARK   94  A    between atoms: _232  and  _235
REMARK   95  A    between atoms: _235  and  _236
REMARK   96  A    between atoms: _236  and  _237
REMARK   97  A    between atoms: _237  and  _238
REMARK   98  A    between atoms: _247  and  _249
REMARK   99  A    between atoms: _249  and  _250
REMARK  100  A    between atoms: _249  and  _252
REMARK  101  A    between atoms: _252  and  _253
REMARK  102  A    between atoms: _253  and  _254
REMARK  103  A    between atoms: _254  and  _255
REMARK  104  A    between atoms: _255  and  _256
REMARK  105  A    between atoms: _260  and  _262
REMARK  106  A    between atoms: _262  and  _263
REMARK  107  A    between atoms: _262  and  _265
REMARK  108  A    between atoms: _265  and  _266
REMARK  109  A    between atoms: _271  and  _273
REMARK  110  A    between atoms: _273  and  _274
REMARK  111  A    between atoms: _273  and  _276
REMARK  112  A    between atoms: _279  and  _281
REMARK  113  A    between atoms: _281  and  _282
REMARK  114  A    between atoms: _281  and  _284
REMARK  115  A    between atoms: _284  and  _285
REMARK  116  A    between atoms: _288  and  _290
REMARK  117  A    between atoms: _290  and  _291
REMARK  118  A    between atoms: _290  and  _293
REMARK  119  A    between atoms: _296  and  _298
REMARK  120  A    between atoms: _298  and  _299
REMARK  121  A    between atoms: _298  and  _301
REMARK  122  A    between atoms: _301  and  _302
REMARK  123  A    between atoms: _305  and  _307
REMARK  124  A    between atoms: _307  and  _308
REMARK  125  A    between atoms: _311  and  _313
REMARK  126  A    between atoms: _313  and  _314
REMARK  127  A    between atoms: _313  and  _316
REMARK  128  A    between atoms: _319  and  _321
REMARK  129  A    between atoms: _321  and  _322
REMARK  130  A    between atoms: _325  and  _327
REMARK  131  A    between atoms: _327  and  _328
REMARK  132  A    between atoms: _331  and  _333
REMARK  133  A    between atoms: _333  and  _334
REMARK  134  A    between atoms: _333  and  _336
REMARK  135  A    between atoms: _336  and  _337
REMARK  136  A    between atoms: _342  and  _343
REMARK  137  A    between atoms: _345  and  _347
REMARK  138  A    between atoms: _347  and  _348
REMARK  139  A    between atoms: _347  and  _350
REMARK  140  A    between atoms: _350  and  _351
REMARK  141  A    between atoms: _351  and  _352
REMARK  142  A    between atoms: _352  and  _353
REMARK  143  A    between atoms: _353  and  _354
REMARK  144  A    between atoms: _358  and  _360
REMARK  145  A    between atoms: _360  and  _361
REMARK  146  A    between atoms: _360  and  _363
REMARK  147  A    between atoms: _363  and  _364
REMARK  148  A    between atoms: _366  and  _368
REMARK  149  A    between atoms: _368  and  _369
REMARK  150  A    between atoms: _368  and  _371
REMARK  151  A    between atoms: _371  and  _372
REMARK  152  A    between atoms: _378  and  _380
REMARK  153  A    between atoms: _380  and  _381
REMARK  154  A    between atoms: _380  and  _383
REMARK  155  A    between atoms: _383  and  _384
REMARK  156  A    between atoms: _387  and  _389
REMARK  157  A    between atoms: _389  and  _390
REMARK  158  A    between atoms: _389  and  _392
REMARK  159  A    between atoms: _395  and  _397
REMARK  160  A    between atoms: _397  and  _398
REMARK  161  A    between atoms: _397  and  _400
REMARK  162  A    between atoms: _400  and  _401
REMARK  163  A    between atoms: _401  and  _402
REMARK  164  A    between atoms: _407  and  _409
REMARK  165  A    between atoms: _409  and  _410
REMARK  166  A    between atoms: _409  and  _412
REMARK  167  A    between atoms: _415  and  _417
REMARK  168  A    between atoms: _417  and  _418
REMARK  169  A    between atoms: _420  and  _422
REMARK  170  A    between atoms: _422  and  _423
REMARK  171  A    between atoms: _422  and  _425
REMARK  172  A    between atoms: _425  and  _426
REMARK  173  A    between atoms: _429  and  _431
REMARK  174  A    between atoms: _431  and  _432
REMARK  175  A    between atoms: _431  and  _434
REMARK  176  A    between atoms: _434  and  _435
REMARK  177  A    between atoms: _440  and  _442
REMARK  178  A    between atoms: _442  and  _443
REMARK  179  A    between atoms: _446  and  _448
REMARK  180  A    between atoms: _448  and  _449
REMARK  181  A    between atoms: _448  and  _451
REMARK  182  A    between atoms: _451  and  _452
REMARK  183  A    between atoms: _457  and  _459
REMARK  184  A    between atoms: _459  and  _460
REMARK  185  A    between atoms: _459  and  _462
REMARK  186  A    between atoms: _462  and  _463
REMARK  187  A    between atoms: _473  and  _475
REMARK  188  A    between atoms: _475  and  _476
REMARK  189  A    between atoms: _475  and  _478
REMARK  190  A    between atoms: _478  and  _479
REMARK  191  A    between atoms: _482  and  _484
REMARK  192  A    between atoms: _484  and  _485
REMARK  193  A    between atoms: _488  and  _490
REMARK  194  A    between atoms: _490  and  _491
REMARK  195  A    between atoms: _490  and  _493
REMARK  196  A    between atoms: _493  and  _494
REMARK  197  A    between atoms: _496  and  _498
REMARK  198  A    between atoms: _498  and  _499
REMARK  199  A    between atoms: _498  and  _501
REMARK  200  A    between atoms: _501  and  _502
REMARK  201  A    between atoms: _502  and  _503
REMARK  202  A    between atoms: _506  and  _508
REMARK  203  A    between atoms: _508  and  _509
REMARK  204  A    between atoms: _508  and  _511
REMARK  205  A    between atoms: _511  and  _512
REMARK  206  A    between atoms: _512  and  _513
REMARK  207  A    between atoms: _516  and  _518
REMARK  208  A    between atoms: _518  and  _519
REMARK  209  A    between atoms: _518  and  _521
REMARK  210  A    between atoms: _521  and  _522
REMARK  211  A    between atoms: _522  and  _523
REMARK  212  A    between atoms: _523  and  _524
REMARK  213  A    between atoms: _533  and  _535
REMARK  214  A    between atoms: _535  and  _536
REMARK  215  A    between atoms: _539  and  _541
REMARK  216  A    between atoms: _541  and  _542
REMARK  217  A    between atoms: _541  and  _544
REMARK  218  A    between atoms: _544  and  _545
REMARK  219  A    between atoms: _545  and  _546
REMARK  220  A    between atoms: _549  and  _551
REMARK  221  A    between atoms: _551  and  _552
REMARK  222  A    between atoms: _554  and  _556
REMARK  223  A    between atoms: _556  and  _557
REMARK  224  A    between atoms: _556  and  _559
REMARK  225  A    between atoms: _559  and  _560
REMARK  226  A    between atoms: _565  and  _567
REMARK  227  A    between atoms: _567  and  _568
REMARK  228  A    between atoms: _567  and  _570
REMARK  229  A    between atoms: _570  and  _571
REMARK  230  A    between atoms: _576  and  _578
REMARK  231  A    between atoms: _578  and  _579
REMARK  232  A    between atoms: _578  and  _581
REMARK  233  A    between atoms: _581  and  _582
REMARK  234  A    between atoms: _582  and  _583
REMARK  235  A    between atoms: _585  and  _587
REMARK  236  A    between atoms: _587  and  _588
REMARK  237  A    between atoms: _587  and  _590
REMARK  238  A    between atoms: _590  and  _591
REMARK  239  A    between atoms: _591  and  _592
REMARK  240  A    between atoms: _597  and  _599
REMARK  241  A    between atoms: _599  and  _600
REMARK  242  A    between atoms: _603  and  _605
REMARK  243  A    between atoms: _605  and  _606
REMARK  244  A    between atoms: _605  and  _608
REMARK  245  A    between atoms: _608  and  _609
REMARK  246  A    between atoms: _614  and  _616
REMARK  247  A    between atoms: _616  and  _617
REMARK  248  A    between atoms: _616  and  _619
REMARK  249  A    between atoms: _619  and  _620
REMARK  250  A    between atoms: _620  and  _621
REMARK  251  A    between atoms: _623  and  _625
REMARK  252  A    between atoms: _625  and  _626
REMARK  253  A    between atoms: _625  and  _628
REMARK  254  A    between atoms: _628  and  _629
REMARK  255  A    between atoms: _629  and  _630
REMARK  256  A    between atoms: _630  and  _631
REMARK  257  A    between atoms: _640  and  _642
REMARK  258  A    between atoms: _642  and  _643
REMARK  259  A    between atoms: _642  and  _645
REMARK  260  A    between atoms: _645  and  _646
REMARK  261  A    between atoms: _646  and  _647
REMARK  262  A    between atoms: _647  and  _648
REMARK  263  A    between atoms: _648  and  _649
REMARK  264  A    between atoms: _653  and  _655
REMARK  265  A    between atoms: _655  and  _656
REMARK  266  A    between atoms: _655  and  _658
REMARK  267  A    between atoms: _658  and  _659
REMARK  268  A    between atoms: _661  and  _663
REMARK  269  A    between atoms: _663  and  _664
REMARK  270  A    between atoms: _663  and  _666
REMARK  271  A    between atoms: _666  and  _667
REMARK  272  A    between atoms: _667  and  _668
REMARK  273  A    between atoms: _668  and  _669
REMARK  274  A    between atoms: _678  and  _680
REMARK  275  A    between atoms: _680  and  _681
REMARK  276  A    between atoms: _680  and  _683
REMARK  277  A    between atoms: _683  and  _684
REMARK  278  A    between atoms: _684  and  _685
REMARK  279  A    between atoms: _685  and  _686
REMARK  280  A    between atoms: _686  and  _687
REMARK  281  A    between atoms: _691  and  _693
REMARK  282  A    between atoms: _693  and  _694
REMARK  283  A    between atoms: _693  and  _696
REMARK  284  A    between atoms: _696  and  _697
REMARK  285  A    between atoms: _700  and  _702
REMARK  286  A    between atoms: _702  and  _703
REMARK  287  A    between atoms: _702  and  _705
REMARK  288  A    between atoms: _705  and  _706
REMARK                            x       y       z     vdW  Elec       q    Type
REMARK                         _______ _______ _______ _____ _____    ______ ____
ROOT
ATOM      1  O   HOH     1       9.868  10.107  46.097  0.00  0.00    +0.000 OA
ENDROOT
TORSDOF 0
REMARK  Name = ../refined-set-2016/3t6b/3t6b_pocket.pdb
REMARK  288 active torsions:
REMARK  status: ('A' for Active; 'I' for Inactive)
REMARK    1  A    between atoms: _1  and  _3
REMARK    2  A    between atoms: _3  and  _4
REMARK    3  A    between atoms: _6  and  _8
REMARK    4  A    between atoms: _8  and  _9
REMARK    5  A    between atoms: _8  and  _11
REMARK    6  A    between atoms: _11  and  _12
REMARK    7  A    between atoms: _14  and  _16
REMARK    8  A    between atoms: _16  and  _17
REMARK    9  A    between atoms: _16  and  _19
REMARK   10  A    between atoms: _19  and  _20
REMARK   11  A    between atoms: _23  and  _25
REMARK   12  A    between atoms: _25  and  _26
REMARK   13  A    between atoms: _25  and  _28
REMARK   14  A    between atoms: _28  and  _29
REMARK   15  A    between atoms: _31  and  _33
REMARK   16  A    between atoms: _33  and  _34
REMARK   17  A    between atoms: _33  and  _36
REMARK   18  A    between atoms: _36  and  _37
REMARK   19  A    between atoms: _43  and  _45
REMARK   20  A    between atoms: _45  and  _46
REMARK   21  A    between atoms: _45  and  _48
REMARK   22  A    between atoms: _48  and  _49
REMARK   23  A    between atoms: _54  and  _55
REMARK   24  A    between atoms: _57  and  _59
REMARK   25  A    between atoms: _59  and  _60
REMARK   26  A    between atoms: _59  and  _62
REMARK   27  A    between atoms: _62  and  _63
REMARK   28  A    between atoms: _66  and  _68
REMARK   29  A    between atoms: _68  and  _69
REMARK   30  A    between atoms: _68  and  _71
REMARK   31  A    between atoms: _71  and  _72
REMARK   32  A    between atoms: _72  and  _73
REMARK   33  A    between atoms: _76  and  _78
REMARK   34  A    between atoms: _78  and  _79
REMARK   35  A    between atoms: _78  and  _81
REMARK   36  A    between atoms: _81  and  _82
REMARK   37  A    between atoms: _84  and  _86
REMARK   38  A    between atoms: _86  and  _87
REMARK   39  A    between atoms: _86  and  _89
REMARK   40  A    between atoms: _89  and  _90
REMARK   41  A    between atoms: _95  and  _96
REMARK   42  A    between atoms: _98  and  _100
REMARK   43  A    between atoms: _100  and  _101
REMARK   44  A    between atoms: _100  and  _103
REMARK   45  A    between atoms: _103  and  _104
REMARK   46  A    between atoms: _104  and  _105
REMARK   47  A    between atoms: _108  and  _110
REMARK   48  A    between atoms: _110  and  _111
REMARK   49  A    between atoms: _110  and  _113
REMARK   50  A    between atoms: _113  and  _114
REMARK   51  A    between atoms: _120  and  _122
REMARK   52  A    between atoms: _122  and  _123
REMARK   53  A    between atoms: _122  and  _125
REMARK   54  A    between atoms: _125  and  _126
REMARK   55  A    between atoms: _128  and  _130
REMARK   56  A    between atoms: _130  and  _131
REMARK   57  A    between atoms: _133  and  _135
REMARK   58  A    between atoms: _135  and  _136
REMARK   59  A    between atoms: _135  and  _138
REMARK   60  A    between atoms: _138  and  _139
REMARK   61  A    between atoms: _143  and  _144
REMARK   62  A    between atoms: _149  and  _151
REMARK   63  A    between atoms: _151  and  _152
REMARK   64  A    between atoms: _155  and  _157
REMARK   65  A    between atoms: _157  and  _158
REMARK   66  A    between atoms: _160  and  _162
REMARK   67  A    between atoms: _162  and  _163
REMARK   68  A    between atoms: _162  and  _165
REMARK   69  A    between atoms: _165  and  _166
REMARK   70  A    between atoms: _169  and  _171
REMARK   71  A    between atoms: _171  and  _172
REMARK   72  A    between atoms: _171  and  _174
REMARK   73  A    between atoms: _174  and  _175
REMARK   74  A    between atoms: _180  and  _182
REMARK   75  A    between atoms: _182  and  _183
REMARK   76  A    between atoms: _182  and  _185
REMARK   77  A    between atoms: _185  and  _186
REMARK   78  A    between atoms: _190  and  _191
REMARK   79  A    between atoms: _196  and  _198
REMARK   80  A    between atoms: _198  and  _199
REMARK   81  A    between atoms: _198  and  _201
REMARK   82  A    between atoms: _201  and  _202
REMARK   83  A    between atoms: _207  and  _209
REMARK   84  A    between atoms: _209  and  _210
REMARK   85  A    between atoms: _209  and  _212
REMARK   86  A    between atoms: _212  and  _213
REMARK   87  A    between atoms: _218  and  _219
REMARK   88  A    between atoms: _221  and  _223
REMARK   89  A    between atoms: _223  and  _224
REMARK   90  A    between atoms: _223  and  _226
REMARK   91  A    between atoms: _226  and  _227
REMARK   92  A    between atoms: _230  and  _232
REMARK   93  A    between atoms: _232  and  _233
REMARK   94  A    between atoms: _232  and  _235
REMARK   95  A    between atoms: _235  and  _236
REMARK   96  A    between atoms: _236  and  _237
REMARK   97  A    between atoms: _237  and  _238
REMARK   98  A    between atoms: _247  and  _249
REMARK   99  A    between atoms: _249  and  _250
REMARK  100  A    between atoms: _249  and  _252
REMARK  101  A    between atoms: _252  and  _253
REMARK  102  A    between atoms: _253  and  _254
REMARK  103  A    between atoms: _254  and  _255
REMARK  104  A    between atoms: _255  and  _256
REMARK  105  A    between atoms: _260  and  _262
REMARK  106  A    between atoms: _262  and  _263
REMARK  107  A    between atoms: _262  and  _265
REMARK  108  A    between atoms: _265  and  _266
REMARK  109  A    between atoms: _271  and  _273
REMARK  110  A    between atoms: _273  and  _274
REMARK  111  A    between atoms: _273  and  _276
REMARK  112  A    between atoms: _279  and  _281
REMARK  113  A    between atoms: _281  and  _282
REMARK  114  A    between atoms: _281  and  _284
REMARK  115  A    between atoms: _284  and  _285
REMARK  116  A    between atoms: _288  and  _290
REMARK  117  A    between atoms: _290  and  _291
REMARK  118  A    between atoms: _290  and  _293
REMARK  119  A    between atoms: _296  and  _298
REMARK  120  A    between atoms: _298  and  _299
REMARK  121  A    between atoms: _298  and  _301
REMARK  122  A    between atoms: _301  and  _302
REMARK  123  A    between atoms: _305  and  _307
REMARK  124  A    between atoms: _307  and  _308
REMARK  125  A    between atoms: _311  and  _313
REMARK  126  A    between atoms: _313  and  _314
REMARK  127  A    between atoms: _313  and  _316
REMARK  128  A    between atoms: _319  and  _321
REMARK  129  A    between atoms: _321  and  _322
REMARK  130  A    between atoms: _325  and  _327
REMARK  131  A    between atoms: _327  and  _328
REMARK  132  A    between atoms: _331  and  _333
REMARK  133  A    between atoms: _333  and  _334
REMARK  134  A    between atoms: _333  and  _336
REMARK  135  A    between atoms: _336  and  _337
REMARK  136  A    between atoms: _342  and  _343
REMARK  137  A    between atoms: _345  and  _347
REMARK  138  A    between atoms: _347  and  _348
REMARK  139  A    between atoms: _347  and  _350
REMARK  140  A    between atoms: _350  and  _351
REMARK  141  A    between atoms: _351  and  _352
REMARK  142  A    between atoms: _352  and  _353
REMARK  143  A    between atoms: _353  and  _354
REMARK  144  A    between atoms: _358  and  _360
REMARK  145  A    between atoms: _360  and  _361
REMARK  146  A    between atoms: _360  and  _363
REMARK  147  A    between atoms: _363  and  _364
REMARK  148  A    between atoms: _366  and  _368
REMARK  149  A    between atoms: _368  and  _369
REMARK  150  A    between atoms: _368  and  _371
REMARK  151  A    between atoms: _371  and  _372
REMARK  152  A    between atoms: _378  and  _380
REMARK  153  A    between atoms: _380  and  _381
REMARK  154  A    between atoms: _380  and  _383
REMARK  155  A    between atoms: _383  and  _384
REMARK  156  A    between atoms: _387  and  _389
REMARK  157  A    between atoms: _389  and  _390
REMARK  158  A    between atoms: _389  and  _392
REMARK  159  A    between atoms: _395  and  _397
REMARK  160  A    between atoms: _397  and  _398
REMARK  161  A    between atoms: _397  and  _400
REMARK  162  A    between atoms: _400  and  _401
REMARK  163  A    between atoms: _401  and  _402
REMARK  164  A    between atoms: _407  and  _409
REMARK  165  A    between atoms: _409  and  _410
REMARK  166  A    between atoms: _409  and  _412
REMARK  167  A    between atoms: _415  and  _417
REMARK  168  A    between atoms: _417  and  _418
REMARK  169  A    between atoms: _420  and  _422
REMARK  170  A    between atoms: _422  and  _423
REMARK  171  A    between atoms: _422  and  _425
REMARK  172  A    between atoms: _425  and  _426
REMARK  173  A    between atoms: _429  and  _431
REMARK  174  A    between atoms: _431  and  _432
REMARK  175  A    between atoms: _431  and  _434
REMARK  176  A    between atoms: _434  and  _435
REMARK  177  A    between atoms: _440  and  _442
REMARK  178  A    between atoms: _442  and  _443
REMARK  179  A    between atoms: _446  and  _448
REMARK  180  A    between atoms: _448  and  _449
REMARK  181  A    between atoms: _448  and  _451
REMARK  182  A    between atoms: _451  and  _452
REMARK  183  A    between atoms: _457  and  _459
REMARK  184  A    between atoms: _459  and  _460
REMARK  185  A    between atoms: _459  and  _462
REMARK  186  A    between atoms: _462  and  _463
REMARK  187  A    between atoms: _473  and  _475
REMARK  188  A    between atoms: _475  and  _476
REMARK  189  A    between atoms: _475  and  _478
REMARK  190  A    between atoms: _478  and  _479
REMARK  191  A    between atoms: _482  and  _484
REMARK  192  A    between atoms: _484  and  _485
REMARK  193  A    between atoms: _488  and  _490
REMARK  194  A    between atoms: _490  and  _491
REMARK  195  A    between atoms: _490  and  _493
REMARK  196  A    between atoms: _493  and  _494
REMARK  197  A    between atoms: _496  and  _498
REMARK  198  A    between atoms: _498  and  _499
REMARK  199  A    between atoms: _498  and  _501
REMARK  200  A    between atoms: _501  and  _502
REMARK  201  A    between atoms: _502  and  _503
REMARK  202  A    between atoms: _506  and  _508
REMARK  203  A    between atoms: _508  and  _509
REMARK  204  A    between atoms: _508  and  _511
REMARK  205  A    between atoms: _511  and  _512
REMARK  206  A    between atoms: _512  and  _513
REMARK  207  A    between atoms: _516  and  _518
REMARK  208  A    between atoms: _518  and  _519
REMARK  209  A    between atoms: _518  and  _521
REMARK  210  A    between atoms: _521  and  _522
REMARK  211  A    between atoms: _522  and  _523
REMARK  212  A    between atoms: _523  and  _524
REMARK  213  A    between atoms: _533  and  _535
REMARK  214  A    between atoms: _535  and  _536
REMARK  215  A    between atoms: _539  and  _541
REMARK  216  A    between atoms: _541  and  _542
REMARK  217  A    between atoms: _541  and  _544
REMARK  218  A    between atoms: _544  and  _545
REMARK  219  A    between atoms: _545  and  _546
REMARK  220  A    between atoms: _549  and  _551
REMARK  221  A    between atoms: _551  and  _552
REMARK  222  A    between atoms: _554  and  _556
REMARK  223  A    between atoms: _556  and  _557
REMARK  224  A    between atoms: _556  and  _559
REMARK  225  A    between atoms: _559  and  _560
REMARK  226  A    between atoms: _565  and  _567
REMARK  227  A    between atoms: _567  and  _568
REMARK  228  A    between atoms: _567  and  _570
REMARK  229  A    between atoms: _570  and  _571
REMARK  230  A    between atoms: _576  and  _578
REMARK  231  A    between atoms: _578  and  _579
REMARK  232  A    between atoms: _578  and  _581
REMARK  233  A    between atoms: _581  and  _582
REMARK  234  A    between atoms: _582  and  _583
REMARK  235  A    between atoms: _585  and  _587
REMARK  236  A    between atoms: _587  and  _588
REMARK  237  A    between atoms: _587  and  _590
REMARK  238  A    between atoms: _590  and  _591
REMARK  239  A    between atoms: _591  and  _592
REMARK  240  A    between atoms: _597  and  _599
REMARK  241  A    between atoms: _599  and  _600
REMARK  242  A    between atoms: _603  and  _605
REMARK  243  A    between atoms: _605  and  _606
REMARK  244  A    between atoms: _605  and  _608
REMARK  245  A    between atoms: _608  and  _609
REMARK  246  A    between atoms: _614  and  _616
REMARK  247  A    between atoms: _616  and  _617
REMARK  248  A    between atoms: _616  and  _619
REMARK  249  A    between atoms: _619  and  _620
REMARK  250  A    between atoms: _620  and  _621
REMARK  251  A    between atoms: _623  and  _625
REMARK  252  A    between atoms: _625  and  _626
REMARK  253  A    between atoms: _625  and  _628
REMARK  254  A    between atoms: _628  and  _629
REMARK  255  A    between atoms: _629  and  _630
REMARK  256  A    between atoms: _630  and  _631
REMARK  257  A    between atoms: _640  and  _642
REMARK  258  A    between atoms: _642  and  _643
REMARK  259  A    between atoms: _642  and  _645
REMARK  260  A    between atoms: _645  and  _646
REMARK  261  A    between atoms: _646  and  _647
REMARK  262  A    between atoms: _647  and  _648
REMARK  263  A    between atoms: _648  and  _649
REMARK  264  A    between atoms: _653  and  _655
REMARK  265  A    between atoms: _655  and  _656
REMARK  266  A    between atoms: _655  and  _658
REMARK  267  A    between atoms: _658  and  _659
REMARK  268  A    between atoms: _661  and  _663
REMARK  269  A    between atoms: _663  and  _664
REMARK  270  A    between atoms: _663  and  _666
REMARK  271  A    between atoms: _666  and  _667
REMARK  272  A    between atoms: _667  and  _668
REMARK  273  A    between atoms: _668  and  _669
REMARK  274  A    between atoms: _678  and  _680
REMARK  275  A    between atoms: _680  and  _681
REMARK  276  A    between atoms: _680  and  _683
REMARK  277  A    between atoms: _683  and  _684
REMARK  278  A    between atoms: _684  and  _685
REMARK  279  A    between atoms: _685  and  _686
REMARK  280  A    between atoms: _686  and  _687
REMARK  281  A    between atoms: _691  and  _693
REMARK  282  A    between atoms: _693  and  _694
REMARK  283  A    between atoms: _693  and  _696
REMARK  284  A    between atoms: _696  and  _697
REMARK  285  A    between atoms: _700  and  _702
REMARK  286  A    between atoms: _702  and  _703
REMARK  287  A    between atoms: _702  and  _705
REMARK  288  A    between atoms: _705  and  _706
REMARK                            x       y       z     vdW  Elec       q    Type
REMARK                         _______ _______ _______ _____ _____    ______ ____
ROOT
ATOM      1  O   HOH     1      16.466   9.421  56.268  0.00  0.00    +0.000 OA
ENDROOT
TORSDOF 0
REMARK  Name = ../refined-set-2016/3t6b/3t6b_pocket.pdb
REMARK  288 active torsions:
REMARK  status: ('A' for Active; 'I' for Inactive)
REMARK    1  A    between atoms: _1  and  _3
REMARK    2  A    between atoms: _3  and  _4
REMARK    3  A    between atoms: _6  and  _8
REMARK    4  A    between atoms: _8  and  _9
REMARK    5  A    between atoms: _8  and  _11
REMARK    6  A    between atoms: _11  and  _12
REMARK    7  A    between atoms: _14  and  _16
REMARK    8  A    between atoms: _16  and  _17
REMARK    9  A    between atoms: _16  and  _19
REMARK   10  A    between atoms: _19  and  _20
REMARK   11  A    between atoms: _23  and  _25
REMARK   12  A    between atoms: _25  and  _26
REMARK   13  A    between atoms: _25  and  _28
REMARK   14  A    between atoms: _28  and  _29
REMARK   15  A    between atoms: _31  and  _33
REMARK   16  A    between atoms: _33  and  _34
REMARK   17  A    between atoms: _33  and  _36
REMARK   18  A    between atoms: _36  and  _37
REMARK   19  A    between atoms: _43  and  _45
REMARK   20  A    between atoms: _45  and  _46
REMARK   21  A    between atoms: _45  and  _48
REMARK   22  A    between atoms: _48  and  _49
REMARK   23  A    between atoms: _54  and  _55
REMARK   24  A    between atoms: _57  and  _59
REMARK   25  A    between atoms: _59  and  _60
REMARK   26  A    between atoms: _59  and  _62
REMARK   27  A    between atoms: _62  and  _63
REMARK   28  A    between atoms: _66  and  _68
REMARK   29  A    between atoms: _68  and  _69
REMARK   30  A    between atoms: _68  and  _71
REMARK   31  A    between atoms: _71  and  _72
REMARK   32  A    between atoms: _72  and  _73
REMARK   33  A    between atoms: _76  and  _78
REMARK   34  A    between atoms: _78  and  _79
REMARK   35  A    between atoms: _78  and  _81
REMARK   36  A    between atoms: _81  and  _82
REMARK   37  A    between atoms: _84  and  _86
REMARK   38  A    between atoms: _86  and  _87
REMARK   39  A    between atoms: _86  and  _89
REMARK   40  A    between atoms: _89  and  _90
REMARK   41  A    between atoms: _95  and  _96
REMARK   42  A    between atoms: _98  and  _100
REMARK   43  A    between atoms: _100  and  _101
REMARK   44  A    between atoms: _100  and  _103
REMARK   45  A    between atoms: _103  and  _104
REMARK   46  A    between atoms: _104  and  _105
REMARK   47  A    between atoms: _108  and  _110
REMARK   48  A    between atoms: _110  and  _111
REMARK   49  A    between atoms: _110  and  _113
REMARK   50  A    between atoms: _113  and  _114
REMARK   51  A    between atoms: _120  and  _122
REMARK   52  A    between atoms: _122  and  _123
REMARK   53  A    between atoms: _122  and  _125
REMARK   54  A    between atoms: _125  and  _126
REMARK   55  A    between atoms: _128  and  _130
REMARK   56  A    between atoms: _130  and  _131
REMARK   57  A    between atoms: _133  and  _135
REMARK   58  A    between atoms: _135  and  _136
REMARK   59  A    between atoms: _135  and  _138
REMARK   60  A    between atoms: _138  and  _139
REMARK   61  A    between atoms: _143  and  _144
REMARK   62  A    between atoms: _149  and  _151
REMARK   63  A    between atoms: _151  and  _152
REMARK   64  A    between atoms: _155  and  _157
REMARK   65  A    between atoms: _157  and  _158
REMARK   66  A    between atoms: _160  and  _162
REMARK   67  A    between atoms: _162  and  _163
REMARK   68  A    between atoms: _162  and  _165
REMARK   69  A    between atoms: _165  and  _166
REMARK   70  A    between atoms: _169  and  _171
REMARK   71  A    between atoms: _171  and  _172
REMARK   72  A    between atoms: _171  and  _174
REMARK   73  A    between atoms: _174  and  _175
REMARK   74  A    between atoms: _180  and  _182
REMARK   75  A    between atoms: _182  and  _183
REMARK   76  A    between atoms: _182  and  _185
REMARK   77  A    between atoms: _185  and  _186
REMARK   78  A    between atoms: _190  and  _191
REMARK   79  A    between atoms: _196  and  _198
REMARK   80  A    between atoms: _198  and  _199
REMARK   81  A    between atoms: _198  and  _201
REMARK   82  A    between atoms: _201  and  _202
REMARK   83  A    between atoms: _207  and  _209
REMARK   84  A    between atoms: _209  and  _210
REMARK   85  A    between atoms: _209  and  _212
REMARK   86  A    between atoms: _212  and  _213
REMARK   87  A    between atoms: _218  and  _219
REMARK   88  A    between atoms: _221  and  _223
REMARK   89  A    between atoms: _223  and  _224
REMARK   90  A    between atoms: _223  and  _226
REMARK   91  A    between atoms: _226  and  _227
REMARK   92  A    between atoms: _230  and  _232
REMARK   93  A    between atoms: _232  and  _233
REMARK   94  A    between atoms: _232  and  _235
REMARK   95  A    between atoms: _235  and  _236
REMARK   96  A    between atoms: _236  and  _237
REMARK   97  A    between atoms: _237  and  _238
REMARK   98  A    between atoms: _247  and  _249
REMARK   99  A    between atoms: _249  and  _250
REMARK  100  A    between atoms: _249  and  _252
REMARK  101  A    between atoms: _252  and  _253
REMARK  102  A    between atoms: _253  and  _254
REMARK  103  A    between atoms: _254  and  _255
REMARK  104  A    between atoms: _255  and  _256
REMARK  105  A    between atoms: _260  and  _262
REMARK  106  A    between atoms: _262  and  _263
REMARK  107  A    between atoms: _262  and  _265
REMARK  108  A    between atoms: _265  and  _266
REMARK  109  A    between atoms: _271  and  _273
REMARK  110  A    between atoms: _273  and  _274
REMARK  111  A    between atoms: _273  and  _276
REMARK  112  A    between atoms: _279  and  _281
REMARK  113  A    between atoms: _281  and  _282
REMARK  114  A    between atoms: _281  and  _284
REMARK  115  A    between atoms: _284  and  _285
REMARK  116  A    between atoms: _288  and  _290
REMARK  117  A    between atoms: _290  and  _291
REMARK  118  A    between atoms: _290  and  _293
REMARK  119  A    between atoms: _296  and  _298
REMARK  120  A    between atoms: _298  and  _299
REMARK  121  A    between atoms: _298  and  _301
REMARK  122  A    between atoms: _301  and  _302
REMARK  123  A    between atoms: _305  and  _307
REMARK  124  A    between atoms: _307  and  _308
REMARK  125  A    between atoms: _311  and  _313
REMARK  126  A    between atoms: _313  and  _314
REMARK  127  A    between atoms: _313  and  _316
REMARK  128  A    between atoms: _319  and  _321
REMARK  129  A    between atoms: _321  and  _322
REMARK  130  A    between atoms: _325  and  _327
REMARK  131  A    between atoms: _327  and  _328
REMARK  132  A    between atoms: _331  and  _333
REMARK  133  A    between atoms: _333  and  _334
REMARK  134  A    between atoms: _333  and  _336
REMARK  135  A    between atoms: _336  and  _337
REMARK  136  A    between atoms: _342  and  _343
REMARK  137  A    between atoms: _345  and  _347
REMARK  138  A    between atoms: _347  and  _348
REMARK  139  A    between atoms: _347  and  _350
REMARK  140  A    between atoms: _350  and  _351
REMARK  141  A    between atoms: _351  and  _352
REMARK  142  A    between atoms: _352  and  _353
REMARK  143  A    between atoms: _353  and  _354
REMARK  144  A    between atoms: _358  and  _360
REMARK  145  A    between atoms: _360  and  _361
REMARK  146  A    between atoms: _360  and  _363
REMARK  147  A    between atoms: _363  and  _364
REMARK  148  A    between atoms: _366  and  _368
REMARK  149  A    between atoms: _368  and  _369
REMARK  150  A    between atoms: _368  and  _371
REMARK  151  A    between atoms: _371  and  _372
REMARK  152  A    between atoms: _378  and  _380
REMARK  153  A    between atoms: _380  and  _381
REMARK  154  A    between atoms: _380  and  _383
REMARK  155  A    between atoms: _383  and  _384
REMARK  156  A    between atoms: _387  and  _389
REMARK  157  A    between atoms: _389  and  _390
REMARK  158  A    between atoms: _389  and  _392
REMARK  159  A    between atoms: _395  and  _397
REMARK  160  A    between atoms: _397  and  _398
REMARK  161  A    between atoms: _397  and  _400
REMARK  162  A    between atoms: _400  and  _401
REMARK  163  A    between atoms: _401  and  _402
REMARK  164  A    between atoms: _407  and  _409
REMARK  165  A    between atoms: _409  and  _410
REMARK  166  A    between atoms: _409  and  _412
REMARK  167  A    between atoms: _415  and  _417
REMARK  168  A    between atoms: _417  and  _418
REMARK  169  A    between atoms: _420  and  _422
REMARK  170  A    between atoms: _422  and  _423
REMARK  171  A    between atoms: _422  and  _425
REMARK  172  A    between atoms: _425  and  _426
REMARK  173  A    between atoms: _429  and  _431
REMARK  174  A    between atoms: _431  and  _432
REMARK  175  A    between atoms: _431  and  _434
REMARK  176  A    between atoms: _434  and  _435
REMARK  177  A    between atoms: _440  and  _442
REMARK  178  A    between atoms: _442  and  _443
REMARK  179  A    between atoms: _446  and  _448
REMARK  180  A    between atoms: _448  and  _449
REMARK  181  A    between atoms: _448  and  _451
REMARK  182  A    between atoms: _451  and  _452
REMARK  183  A    between atoms: _457  and  _459
REMARK  184  A    between atoms: _459  and  _460
REMARK  185  A    between atoms: _459  and  _462
REMARK  186  A    between atoms: _462  and  _463
REMARK  187  A    between atoms: _473  and  _475
REMARK  188  A    between atoms: _475  and  _476
REMARK  189  A    between atoms: _475  and  _478
REMARK  190  A    between atoms: _478  and  _479
REMARK  191  A    between atoms: _482  and  _484
REMARK  192  A    between atoms: _484  and  _485
REMARK  193  A    between atoms: _488  and  _490
REMARK  194  A    between atoms: _490  and  _491
REMARK  195  A    between atoms: _490  and  _493
REMARK  196  A    between atoms: _493  and  _494
REMARK  197  A    between atoms: _496  and  _498
REMARK  198  A    between atoms: _498  and  _499
REMARK  199  A    between atoms: _498  and  _501
REMARK  200  A    between atoms: _501  and  _502
REMARK  201  A    between atoms: _502  and  _503
REMARK  202  A    between atoms: _506  and  _508
REMARK  203  A    between atoms: _508  and  _509
REMARK  204  A    between atoms: _508  and  _511
REMARK  205  A    between atoms: _511  and  _512
REMARK  206  A    between atoms: _512  and  _513
REMARK  207  A    between atoms: _516  and  _518
REMARK  208  A    between atoms: _518  and  _519
REMARK  209  A    between atoms: _518  and  _521
REMARK  210  A    between atoms: _521  and  _522
REMARK  211  A    between atoms: _522  and  _523
REMARK  212  A    between atoms: _523  and  _524
REMARK  213  A    between atoms: _533  and  _535
REMARK  214  A    between atoms: _535  and  _536
REMARK  215  A    between atoms: _539  and  _541
REMARK  216  A    between atoms: _541  and  _542
REMARK  217  A    between atoms: _541  and  _544
REMARK  218  A    between atoms: _544  and  _545
REMARK  219  A    between atoms: _545  and  _546
REMARK  220  A    between atoms: _549  and  _551
REMARK  221  A    between atoms: _551  and  _552
REMARK  222  A    between atoms: _554  and  _556
REMARK  223  A    between atoms: _556  and  _557
REMARK  224  A    between atoms: _556  and  _559
REMARK  225  A    between atoms: _559  and  _560
REMARK  226  A    between atoms: _565  and  _567
REMARK  227  A    between atoms: _567  and  _568
REMARK  228  A    between atoms: _567  and  _570
REMARK  229  A    between atoms: _570  and  _571
REMARK  230  A    between atoms: _576  and  _578
REMARK  231  A    between atoms: _578  and  _579
REMARK  232  A    between atoms: _578  and  _581
REMARK  233  A    between atoms: _581  and  _582
REMARK  234  A    between atoms: _582  and  _583
REMARK  235  A    between atoms: _585  and  _587
REMARK  236  A    between atoms: _587  and  _588
REMARK  237  A    between atoms: _587  and  _590
REMARK  238  A    between atoms: _590  and  _591
REMARK  239  A    between atoms: _591  and  _592
REMARK  240  A    between atoms: _597  and  _599
REMARK  241  A    between atoms: _599  and  _600
REMARK  242  A    between atoms: _603  and  _605
REMARK  243  A    between atoms: _605  and  _606
REMARK  244  A    between atoms: _605  and  _608
REMARK  245  A    between atoms: _608  and  _609
REMARK  246  A    between atoms: _614  and  _616
REMARK  247  A    between atoms: _616  and  _617
REMARK  248  A    between atoms: _616  and  _619
REMARK  249  A    between atoms: _619  and  _620
REMARK  250  A    between atoms: _620  and  _621
REMARK  251  A    between atoms: _623  and  _625
REMARK  252  A    between atoms: _625  and  _626
REMARK  253  A    between atoms: _625  and  _628
REMARK  254  A    between atoms: _628  and  _629
REMARK  255  A    between atoms: _629  and  _630
REMARK  256  A    between atoms: _630  and  _631
REMARK  257  A    between atoms: _640  and  _642
REMARK  258  A    between atoms: _642  and  _643
REMARK  259  A    between atoms: _642  and  _645
REMARK  260  A    between atoms: _645  and  _646
REMARK  261  A    between atoms: _646  and  _647
REMARK  262  A    between atoms: _647  and  _648
REMARK  263  A    between atoms: _648  and  _649
REMARK  264  A    between atoms: _653  and  _655
REMARK  265  A    between atoms: _655  and  _656
REMARK  266  A    between atoms: _655  and  _658
REMARK  267  A    between atoms: _658  and  _659
REMARK  268  A    between atoms: _661  and  _663
REMARK  269  A    between atoms: _663  and  _664
REMARK  270  A    between atoms: _663  and  _666
REMARK  271  A    between atoms: _666  and  _667
REMARK  272  A    between atoms: _667  and  _668
REMARK  273  A    between atoms: _668  and  _669
REMARK  274  A    between atoms: _678  and  _680
REMARK  275  A    between atoms: _680  and  _681
REMARK  276  A    between atoms: _680  and  _683
REMARK  277  A    between atoms: _683  and  _684
REMARK  278  A    between atoms: _684  and  _685
REMARK  279  A    between atoms: _685  and  _686
REMARK  280  A    between atoms: _686  and  _687
REMARK  281  A    between atoms: _691  and  _693
REMARK  282  A    between atoms: _693  and  _694
REMARK  283  A    between atoms: _693  and  _696
REMARK  284  A    between atoms: _696  and  _697
REMARK  285  A    between atoms: _700  and  _702
REMARK  286  A    between atoms: _702  and  _703
REMARK  287  A    between atoms: _702  and  _705
REMARK  288  A    between atoms: _705  and  _706
REMARK                            x       y       z     vdW  Elec       q    Type
REMARK                         _______ _______ _______ _____ _____    ______ ____
ROOT
ATOM      1  O   HOH     1      13.470  12.818  51.825  0.00  0.00    +0.000 OA
ENDROOT
TORSDOF 0
REMARK  Name = ../refined-set-2016/3t6b/3t6b_pocket.pdb
REMARK  288 active torsions:
REMARK  status: ('A' for Active; 'I' for Inactive)
REMARK    1  A    between atoms: _1  and  _3
REMARK    2  A    between atoms: _3  and  _4
REMARK    3  A    between atoms: _6  and  _8
REMARK    4  A    between atoms: _8  and  _9
REMARK    5  A    between atoms: _8  and  _11
REMARK    6  A    between atoms: _11  and  _12
REMARK    7  A    between atoms: _14  and  _16
REMARK    8  A    between atoms: _16  and  _17
REMARK    9  A    between atoms: _16  and  _19
REMARK   10  A    between atoms: _19  and  _20
REMARK   11  A    between atoms: _23  and  _25
REMARK   12  A    between atoms: _25  and  _26
REMARK   13  A    between atoms: _25  and  _28
REMARK   14  A    between atoms: _28  and  _29
REMARK   15  A    between atoms: _31  and  _33
REMARK   16  A    between atoms: _33  and  _34
REMARK   17  A    between atoms: _33  and  _36
REMARK   18  A    between atoms: _36  and  _37
REMARK   19  A    between atoms: _43  and  _45
REMARK   20  A    between atoms: _45  and  _46
REMARK   21  A    between atoms: _45  and  _48
REMARK   22  A    between atoms: _48  and  _49
REMARK   23  A    between atoms: _54  and  _55
REMARK   24  A    between atoms: _57  and  _59
REMARK   25  A    between atoms: _59  and  _60
REMARK   26  A    between atoms: _59  and  _62
REMARK   27  A    between atoms: _62  and  _63
REMARK   28  A    between atoms: _66  and  _68
REMARK   29  A    between atoms: _68  and  _69
REMARK   30  A    between atoms: _68  and  _71
REMARK   31  A    between atoms: _71  and  _72
REMARK   32  A    between atoms: _72  and  _73
REMARK   33  A    between atoms: _76  and  _78
REMARK   34  A    between atoms: _78  and  _79
REMARK   35  A    between atoms: _78  and  _81
REMARK   36  A    between atoms: _81  and  _82
REMARK   37  A    between atoms: _84  and  _86
REMARK   38  A    between atoms: _86  and  _87
REMARK   39  A    between atoms: _86  and  _89
REMARK   40  A    between atoms: _89  and  _90
REMARK   41  A    between atoms: _95  and  _96
REMARK   42  A    between atoms: _98  and  _100
REMARK   43  A    between atoms: _100  and  _101
REMARK   44  A    between atoms: _100  and  _103
REMARK   45  A    between atoms: _103  and  _104
REMARK   46  A    between atoms: _104  and  _105
REMARK   47  A    between atoms: _108  and  _110
REMARK   48  A    between atoms: _110  and  _111
REMARK   49  A    between atoms: _110  and  _113
REMARK   50  A    between atoms: _113  and  _114
REMARK   51  A    between atoms: _120  and  _122
REMARK   52  A    between atoms: _122  and  _123
REMARK   53  A    between atoms: _122  and  _125
REMARK   54  A    between atoms: _125  and  _126
REMARK   55  A    between atoms: _128  and  _130
REMARK   56  A    between atoms: _130  and  _131
REMARK   57  A    between atoms: _133  and  _135
REMARK   58  A    between atoms: _135  and  _136
REMARK   59  A    between atoms: _135  and  _138
REMARK   60  A    between atoms: _138  and  _139
REMARK   61  A    between atoms: _143  and  _144
REMARK   62  A    between atoms: _149  and  _151
REMARK   63  A    between atoms: _151  and  _152
REMARK   64  A    between atoms: _155  and  _157
REMARK   65  A    between atoms: _157  and  _158
REMARK   66  A    between atoms: _160  and  _162
REMARK   67  A    between atoms: _162  and  _163
REMARK   68  A    between atoms: _162  and  _165
REMARK   69  A    between atoms: _165  and  _166
REMARK   70  A    between atoms: _169  and  _171
REMARK   71  A    between atoms: _171  and  _172
REMARK   72  A    between atoms: _171  and  _174
REMARK   73  A    between atoms: _174  and  _175
REMARK   74  A    between atoms: _180  and  _182
REMARK   75  A    between atoms: _182  and  _183
REMARK   76  A    between atoms: _182  and  _185
REMARK   77  A    between atoms: _185  and  _186
REMARK   78  A    between atoms: _190  and  _191
REMARK   79  A    between atoms: _196  and  _198
REMARK   80  A    between atoms: _198  and  _199
REMARK   81  A    between atoms: _198  and  _201
REMARK   82  A    between atoms: _201  and  _202
REMARK   83  A    between atoms: _207  and  _209
REMARK   84  A    between atoms: _209  and  _210
REMARK   85  A    between atoms: _209  and  _212
REMARK   86  A    between atoms: _212  and  _213
REMARK   87  A    between atoms: _218  and  _219
REMARK   88  A    between atoms: _221  and  _223
REMARK   89  A    between atoms: _223  and  _224
REMARK   90  A    between atoms: _223  and  _226
REMARK   91  A    between atoms: _226  and  _227
REMARK   92  A    between atoms: _230  and  _232
REMARK   93  A    between atoms: _232  and  _233
REMARK   94  A    between atoms: _232  and  _235
REMARK   95  A    between atoms: _235  and  _236
REMARK   96  A    between atoms: _236  and  _237
REMARK   97  A    between atoms: _237  and  _238
REMARK   98  A    between atoms: _247  and  _249
REMARK   99  A    between atoms: _249  and  _250
REMARK  100  A    between atoms: _249  and  _252
REMARK  101  A    between atoms: _252  and  _253
REMARK  102  A    between atoms: _253  and  _254
REMARK  103  A    between atoms: _254  and  _255
REMARK  104  A    between atoms: _255  and  _256
REMARK  105  A    between atoms: _260  and  _262
REMARK  106  A    between atoms: _262  and  _263
REMARK  107  A    between atoms: _262  and  _265
REMARK  108  A    between atoms: _265  and  _266
REMARK  109  A    between atoms: _271  and  _273
REMARK  110  A    between atoms: _273  and  _274
REMARK  111  A    between atoms: _273  and  _276
REMARK  112  A    between atoms: _279  and  _281
REMARK  113  A    between atoms: _281  and  _282
REMARK  114  A    between atoms: _281  and  _284
REMARK  115  A    between atoms: _284  and  _285
REMARK  116  A    between atoms: _288  and  _290
REMARK  117  A    between atoms: _290  and  _291
REMARK  118  A    between atoms: _290  and  _293
REMARK  119  A    between atoms: _296  and  _298
REMARK  120  A    between atoms: _298  and  _299
REMARK  121  A    between atoms: _298  and  _301
REMARK  122  A    between atoms: _301  and  _302
REMARK  123  A    between atoms: _305  and  _307
REMARK  124  A    between atoms: _307  and  _308
REMARK  125  A    between atoms: _311  and  _313
REMARK  126  A    between atoms: _313  and  _314
REMARK  127  A    between atoms: _313  and  _316
REMARK  128  A    between atoms: _319  and  _321
REMARK  129  A    between atoms: _321  and  _322
REMARK  130  A    between atoms: _325  and  _327
REMARK  131  A    between atoms: _327  and  _328
REMARK  132  A    between atoms: _331  and  _333
REMARK  133  A    between atoms: _333  and  _334
REMARK  134  A    between atoms: _333  and  _336
REMARK  135  A    between atoms: _336  and  _337
REMARK  136  A    between atoms: _342  and  _343
REMARK  137  A    between atoms: _345  and  _347
REMARK  138  A    between atoms: _347  and  _348
REMARK  139  A    between atoms: _347  and  _350
REMARK  140  A    between atoms: _350  and  _351
REMARK  141  A    between atoms: _351  and  _352
REMARK  142  A    between atoms: _352  and  _353
REMARK  143  A    between atoms: _353  and  _354
REMARK  144  A    between atoms: _358  and  _360
REMARK  145  A    between atoms: _360  and  _361
REMARK  146  A    between atoms: _360  and  _363
REMARK  147  A    between atoms: _363  and  _364
REMARK  148  A    between atoms: _366  and  _368
REMARK  149  A    between atoms: _368  and  _369
REMARK  150  A    between atoms: _368  and  _371
REMARK  151  A    between atoms: _371  and  _372
REMARK  152  A    between atoms: _378  and  _380
REMARK  153  A    between atoms: _380  and  _381
REMARK  154  A    between atoms: _380  and  _383
REMARK  155  A    between atoms: _383  and  _384
REMARK  156  A    between atoms: _387  and  _389
REMARK  157  A    between atoms: _389  and  _390
REMARK  158  A    between atoms: _389  and  _392
REMARK  159  A    between atoms: _395  and  _397
REMARK  160  A    between atoms: _397  and  _398
REMARK  161  A    between atoms: _397  and  _400
REMARK  162  A    between atoms: _400  and  _401
REMARK  163  A    between atoms: _401  and  _402
REMARK  164  A    between atoms: _407  and  _409
REMARK  165  A    between atoms: _409  and  _410
REMARK  166  A    between atoms: _409  and  _412
REMARK  167  A    between atoms: _415  and  _417
REMARK  168  A    between atoms: _417  and  _418
REMARK  169  A    between atoms: _420  and  _422
REMARK  170  A    between atoms: _422  and  _423
REMARK  171  A    between atoms: _422  and  _425
REMARK  172  A    between atoms: _425  and  _426
REMARK  173  A    between atoms: _429  and  _431
REMARK  174  A    between atoms: _431  and  _432
REMARK  175  A    between atoms: _431  and  _434
REMARK  176  A    between atoms: _434  and  _435
REMARK  177  A    between atoms: _440  and  _442
REMARK  178  A    between atoms: _442  and  _443
REMARK  179  A    between atoms: _446  and  _448
REMARK  180  A    between atoms: _448  and  _449
REMARK  181  A    between atoms: _448  and  _451
REMARK  182  A    between atoms: _451  and  _452
REMARK  183  A    between atoms: _457  and  _459
REMARK  184  A    between atoms: _459  and  _460
REMARK  185  A    between atoms: _459  and  _462
REMARK  186  A    between atoms: _462  and  _463
REMARK  187  A    between atoms: _473  and  _475
REMARK  188  A    between atoms: _475  and  _476
REMARK  189  A    between atoms: _475  and  _478
REMARK  190  A    between atoms: _478  and  _479
REMARK  191  A    between atoms: _482  and  _484
REMARK  192  A    between atoms: _484  and  _485
REMARK  193  A    between atoms: _488  and  _490
REMARK  194  A    between atoms: _490  and  _491
REMARK  195  A    between atoms: _490  and  _493
REMARK  196  A    between atoms: _493  and  _494
REMARK  197  A    between atoms: _496  and  _498
REMARK  198  A    between atoms: _498  and  _499
REMARK  199  A    between atoms: _498  and  _501
REMARK  200  A    between atoms: _501  and  _502
REMARK  201  A    between atoms: _502  and  _503
REMARK  202  A    between atoms: _506  and  _508
REMARK  203  A    between atoms: _508  and  _509
REMARK  204  A    between atoms: _508  and  _511
REMARK  205  A    between atoms: _511  and  _512
REMARK  206  A    between atoms: _512  and  _513
REMARK  207  A    between atoms: _516  and  _518
REMARK  208  A    between atoms: _518  and  _519
REMARK  209  A    between atoms: _518  and  _521
REMARK  210  A    between atoms: _521  and  _522
REMARK  211  A    between atoms: _522  and  _523
REMARK  212  A    between atoms: _523  and  _524
REMARK  213  A    between atoms: _533  and  _535
REMARK  214  A    between atoms: _535  and  _536
REMARK  215  A    between atoms: _539  and  _541
REMARK  216  A    between atoms: _541  and  _542
REMARK  217  A    between atoms: _541  and  _544
REMARK  218  A    between atoms: _544  and  _545
REMARK  219  A    between atoms: _545  and  _546
REMARK  220  A    between atoms: _549  and  _551
REMARK  221  A    between atoms: _551  and  _552
REMARK  222  A    between atoms: _554  and  _556
REMARK  223  A    between atoms: _556  and  _557
REMARK  224  A    between atoms: _556  and  _559
REMARK  225  A    between atoms: _559  and  _560
REMARK  226  A    between atoms: _565  and  _567
REMARK  227  A    between atoms: _567  and  _568
REMARK  228  A    between atoms: _567  and  _570
REMARK  229  A    between atoms: _570  and  _571
REMARK  230  A    between atoms: _576  and  _578
REMARK  231  A    between atoms: _578  and  _579
REMARK  232  A    between atoms: _578  and  _581
REMARK  233  A    between atoms: _581  and  _582
REMARK  234  A    between atoms: _582  and  _583
REMARK  235  A    between atoms: _585  and  _587
REMARK  236  A    between atoms: _587  and  _588
REMARK  237  A    between atoms: _587  and  _590
REMARK  238  A    between atoms: _590  and  _591
REMARK  239  A    between atoms: _591  and  _592
REMARK  240  A    between atoms: _597  and  _599
REMARK  241  A    between atoms: _599  and  _600
REMARK  242  A    between atoms: _603  and  _605
REMARK  243  A    between atoms: _605  and  _606
REMARK  244  A    between atoms: _605  and  _608
REMARK  245  A    between atoms: _608  and  _609
REMARK  246  A    between atoms: _614  and  _616
REMARK  247  A    between atoms: _616  and  _617
REMARK  248  A    between atoms: _616  and  _619
REMARK  249  A    between atoms: _619  and  _620
REMARK  250  A    between atoms: _620  and  _621
REMARK  251  A    between atoms: _623  and  _625
REMARK  252  A    between atoms: _625  and  _626
REMARK  253  A    between atoms: _625  and  _628
REMARK  254  A    between atoms: _628  and  _629
REMARK  255  A    between atoms: _629  and  _630
REMARK  256  A    between atoms: _630  and  _631
REMARK  257  A    between atoms: _640  and  _642
REMARK  258  A    between atoms: _642  and  _643
REMARK  259  A    between atoms: _642  and  _645
REMARK  260  A    between atoms: _645  and  _646
REMARK  261  A    between atoms: _646  and  _647
REMARK  262  A    between atoms: _647  and  _648
REMARK  263  A    between atoms: _648  and  _649
REMARK  264  A    between atoms: _653  and  _655
REMARK  265  A    between atoms: _655  and  _656
REMARK  266  A    between atoms: _655  and  _658
REMARK  267  A    between atoms: _658  and  _659
REMARK  268  A    between atoms: _661  and  _663
REMARK  269  A    between atoms: _663  and  _664
REMARK  270  A    between atoms: _663  and  _666
REMARK  271  A    between atoms: _666  and  _667
REMARK  272  A    between atoms: _667  and  _668
REMARK  273  A    between atoms: _668  and  _669
REMARK  274  A    between atoms: _678  and  _680
REMARK  275  A    between atoms: _680  and  _681
REMARK  276  A    between atoms: _680  and  _683
REMARK  277  A    between atoms: _683  and  _684
REMARK  278  A    between atoms: _684  and  _685
REMARK  279  A    between atoms: _685  and  _686
REMARK  280  A    between atoms: _686  and  _687
REMARK  281  A    between atoms: _691  and  _693
REMARK  282  A    between atoms: _693  and  _694
REMARK  283  A    between atoms: _693  and  _696
REMARK  284  A    between atoms: _696  and  _697
REMARK  285  A    between atoms: _700  and  _702
REMARK  286  A    between atoms: _702  and  _703
REMARK  287  A    between atoms: _702  and  _705
REMARK  288  A    between atoms: _705  and  _706
REMARK                            x       y       z     vdW  Elec       q    Type
REMARK                         _______ _______ _______ _____ _____    ______ ____
ROOT
ATOM      1  O   HOH     1      24.575   8.546  58.596  0.00  0.00    +0.000 OA
ENDROOT
TORSDOF 0
REMARK  Name = ../refined-set-2016/3t6b/3t6b_pocket.pdb
REMARK  288 active torsions:
REMARK  status: ('A' for Active; 'I' for Inactive)
REMARK    1  A    between atoms: _1  and  _3
REMARK    2  A    between atoms: _3  and  _4
REMARK    3  A    between atoms: _6  and  _8
REMARK    4  A    between atoms: _8  and  _9
REMARK    5  A    between atoms: _8  and  _11
REMARK    6  A    between atoms: _11  and  _12
REMARK    7  A    between atoms: _14  and  _16
REMARK    8  A    between atoms: _16  and  _17
REMARK    9  A    between atoms: _16  and  _19
REMARK   10  A    between atoms: _19  and  _20
REMARK   11  A    between atoms: _23  and  _25
REMARK   12  A    between atoms: _25  and  _26
REMARK   13  A    between atoms: _25  and  _28
REMARK   14  A    between atoms: _28  and  _29
REMARK   15  A    between atoms: _31  and  _33
REMARK   16  A    between atoms: _33  and  _34
REMARK   17  A    between atoms: _33  and  _36
REMARK   18  A    between atoms: _36  and  _37
REMARK   19  A    between atoms: _43  and  _45
REMARK   20  A    between atoms: _45  and  _46
REMARK   21  A    between atoms: _45  and  _48
REMARK   22  A    between atoms: _48  and  _49
REMARK   23  A    between atoms: _54  and  _55
REMARK   24  A    between atoms: _57  and  _59
REMARK   25  A    between atoms: _59  and  _60
REMARK   26  A    between atoms: _59  and  _62
REMARK   27  A    between atoms: _62  and  _63
REMARK   28  A    between atoms: _66  and  _68
REMARK   29  A    between atoms: _68  and  _69
REMARK   30  A    between atoms: _68  and  _71
REMARK   31  A    between atoms: _71  and  _72
REMARK   32  A    between atoms: _72  and  _73
REMARK   33  A    between atoms: _76  and  _78
REMARK   34  A    between atoms: _78  and  _79
REMARK   35  A    between atoms: _78  and  _81
REMARK   36  A    between atoms: _81  and  _82
REMARK   37  A    between atoms: _84  and  _86
REMARK   38  A    between atoms: _86  and  _87
REMARK   39  A    between atoms: _86  and  _89
REMARK   40  A    between atoms: _89  and  _90
REMARK   41  A    between atoms: _95  and  _96
REMARK   42  A    between atoms: _98  and  _100
REMARK   43  A    between atoms: _100  and  _101
REMARK   44  A    between atoms: _100  and  _103
REMARK   45  A    between atoms: _103  and  _104
REMARK   46  A    between atoms: _104  and  _105
REMARK   47  A    between atoms: _108  and  _110
REMARK   48  A    between atoms: _110  and  _111
REMARK   49  A    between atoms: _110  and  _113
REMARK   50  A    between atoms: _113  and  _114
REMARK   51  A    between atoms: _120  and  _122
REMARK   52  A    between atoms: _122  and  _123
REMARK   53  A    between atoms: _122  and  _125
REMARK   54  A    between atoms: _125  and  _126
REMARK   55  A    between atoms: _128  and  _130
REMARK   56  A    between atoms: _130  and  _131
REMARK   57  A    between atoms: _133  and  _135
REMARK   58  A    between atoms: _135  and  _136
REMARK   59  A    between atoms: _135  and  _138
REMARK   60  A    between atoms: _138  and  _139
REMARK   61  A    between atoms: _143  and  _144
REMARK   62  A    between atoms: _149  and  _151
REMARK   63  A    between atoms: _151  and  _152
REMARK   64  A    between atoms: _155  and  _157
REMARK   65  A    between atoms: _157  and  _158
REMARK   66  A    between atoms: _160  and  _162
REMARK   67  A    between atoms: _162  and  _163
REMARK   68  A    between atoms: _162  and  _165
REMARK   69  A    between atoms: _165  and  _166
REMARK   70  A    between atoms: _169  and  _171
REMARK   71  A    between atoms: _171  and  _172
REMARK   72  A    between atoms: _171  and  _174
REMARK   73  A    between atoms: _174  and  _175
REMARK   74  A    between atoms: _180  and  _182
REMARK   75  A    between atoms: _182  and  _183
REMARK   76  A    between atoms: _182  and  _185
REMARK   77  A    between atoms: _185  and  _186
REMARK   78  A    between atoms: _190  and  _191
REMARK   79  A    between atoms: _196  and  _198
REMARK   80  A    between atoms: _198  and  _199
REMARK   81  A    between atoms: _198  and  _201
REMARK   82  A    between atoms: _201  and  _202
REMARK   83  A    between atoms: _207  and  _209
REMARK   84  A    between atoms: _209  and  _210
REMARK   85  A    between atoms: _209  and  _212
REMARK   86  A    between atoms: _212  and  _213
REMARK   87  A    between atoms: _218  and  _219
REMARK   88  A    between atoms: _221  and  _223
REMARK   89  A    between atoms: _223  and  _224
REMARK   90  A    between atoms: _223  and  _226
REMARK   91  A    between atoms: _226  and  _227
REMARK   92  A    between atoms: _230  and  _232
REMARK   93  A    between atoms: _232  and  _233
REMARK   94  A    between atoms: _232  and  _235
REMARK   95  A    between atoms: _235  and  _236
REMARK   96  A    between atoms: _236  and  _237
REMARK   97  A    between atoms: _237  and  _238
REMARK   98  A    between atoms: _247  and  _249
REMARK   99  A    between atoms: _249  and  _250
REMARK  100  A    between atoms: _249  and  _252
REMARK  101  A    between atoms: _252  and  _253
REMARK  102  A    between atoms: _253  and  _254
REMARK  103  A    between atoms: _254  and  _255
REMARK  104  A    between atoms: _255  and  _256
REMARK  105  A    between atoms: _260  and  _262
REMARK  106  A    between atoms: _262  and  _263
REMARK  107  A    between atoms: _262  and  _265
REMARK  108  A    between atoms: _265  and  _266
REMARK  109  A    between atoms: _271  and  _273
REMARK  110  A    between atoms: _273  and  _274
REMARK  111  A    between atoms: _273  and  _276
REMARK  112  A    between atoms: _279  and  _281
REMARK  113  A    between atoms: _281  and  _282
REMARK  114  A    between atoms: _281  and  _284
REMARK  115  A    between atoms: _284  and  _285
REMARK  116  A    between atoms: _288  and  _290
REMARK  117  A    between atoms: _290  and  _291
REMARK  118  A    between atoms: _290  and  _293
REMARK  119  A    between atoms: _296  and  _298
REMARK  120  A    between atoms: _298  and  _299
REMARK  121  A    between atoms: _298  and  _301
REMARK  122  A    between atoms: _301  and  _302
REMARK  123  A    between atoms: _305  and  _307
REMARK  124  A    between atoms: _307  and  _308
REMARK  125  A    between atoms: _311  and  _313
REMARK  126  A    between atoms: _313  and  _314
REMARK  127  A    between atoms: _313  and  _316
REMARK  128  A    between atoms: _319  and  _321
REMARK  129  A    between atoms: _321  and  _322
REMARK  130  A    between atoms: _325  and  _327
REMARK  131  A    between atoms: _327  and  _328
REMARK  132  A    between atoms: _331  and  _333
REMARK  133  A    between atoms: _333  and  _334
REMARK  134  A    between atoms: _333  and  _336
REMARK  135  A    between atoms: _336  and  _337
REMARK  136  A    between atoms: _342  and  _343
REMARK  137  A    between atoms: _345  and  _347
REMARK  138  A    between atoms: _347  and  _348
REMARK  139  A    between atoms: _347  and  _350
REMARK  140  A    between atoms: _350  and  _351
REMARK  141  A    between atoms: _351  and  _352
REMARK  142  A    between atoms: _352  and  _353
REMARK  143  A    between atoms: _353  and  _354
REMARK  144  A    between atoms: _358  and  _360
REMARK  145  A    between atoms: _360  and  _361
REMARK  146  A    between atoms: _360  and  _363
REMARK  147  A    between atoms: _363  and  _364
REMARK  148  A    between atoms: _366  and  _368
REMARK  149  A    between atoms: _368  and  _369
REMARK  150  A    between atoms: _368  and  _371
REMARK  151  A    between atoms: _371  and  _372
REMARK  152  A    between atoms: _378  and  _380
REMARK  153  A    between atoms: _380  and  _381
REMARK  154  A    between atoms: _380  and  _383
REMARK  155  A    between atoms: _383  and  _384
REMARK  156  A    between atoms: _387  and  _389
REMARK  157  A    between atoms: _389  and  _390
REMARK  158  A    between atoms: _389  and  _392
REMARK  159  A    between atoms: _395  and  _397
REMARK  160  A    between atoms: _397  and  _398
REMARK  161  A    between atoms: _397  and  _400
REMARK  162  A    between atoms: _400  and  _401
REMARK  163  A    between atoms: _401  and  _402
REMARK  164  A    between atoms: _407  and  _409
REMARK  165  A    between atoms: _409  and  _410
REMARK  166  A    between atoms: _409  and  _412
REMARK  167  A    between atoms: _415  and  _417
REMARK  168  A    between atoms: _417  and  _418
REMARK  169  A    between atoms: _420  and  _422
REMARK  170  A    between atoms: _422  and  _423
REMARK  171  A    between atoms: _422  and  _425
REMARK  172  A    between atoms: _425  and  _426
REMARK  173  A    between atoms: _429  and  _431
REMARK  174  A    between atoms: _431  and  _432
REMARK  175  A    between atoms: _431  and  _434
REMARK  176  A    between atoms: _434  and  _435
REMARK  177  A    between atoms: _440  and  _442
REMARK  178  A    between atoms: _442  and  _443
REMARK  179  A    between atoms: _446  and  _448
REMARK  180  A    between atoms: _448  and  _449
REMARK  181  A    between atoms: _448  and  _451
REMARK  182  A    between atoms: _451  and  _452
REMARK  183  A    between atoms: _457  and  _459
REMARK  184  A    between atoms: _459  and  _460
REMARK  185  A    between atoms: _459  and  _462
REMARK  186  A    between atoms: _462  and  _463
REMARK  187  A    between atoms: _473  and  _475
REMARK  188  A    between atoms: _475  and  _476
REMARK  189  A    between atoms: _475  and  _478
REMARK  190  A    between atoms: _478  and  _479
REMARK  191  A    between atoms: _482  and  _484
REMARK  192  A    between atoms: _484  and  _485
REMARK  193  A    between atoms: _488  and  _490
REMARK  194  A    between atoms: _490  and  _491
REMARK  195  A    between atoms: _490  and  _493
REMARK  196  A    between atoms: _493  and  _494
REMARK  197  A    between atoms: _496  and  _498
REMARK  198  A    between atoms: _498  and  _499
REMARK  199  A    between atoms: _498  and  _501
REMARK  200  A    between atoms: _501  and  _502
REMARK  201  A    between atoms: _502  and  _503
REMARK  202  A    between atoms: _506  and  _508
REMARK  203  A    between atoms: _508  and  _509
REMARK  204  A    between atoms: _508  and  _511
REMARK  205  A    between atoms: _511  and  _512
REMARK  206  A    between atoms: _512  and  _513
REMARK  207  A    between atoms: _516  and  _518
REMARK  208  A    between atoms: _518  and  _519
REMARK  209  A    between atoms: _518  and  _521
REMARK  210  A    between atoms: _521  and  _522
REMARK  211  A    between atoms: _522  and  _523
REMARK  212  A    between atoms: _523  and  _524
REMARK  213  A    between atoms: _533  and  _535
REMARK  214  A    between atoms: _535  and  _536
REMARK  215  A    between atoms: _539  and  _541
REMARK  216  A    between atoms: _541  and  _542
REMARK  217  A    between atoms: _541  and  _544
REMARK  218  A    between atoms: _544  and  _545
REMARK  219  A    between atoms: _545  and  _546
REMARK  220  A    between atoms: _549  and  _551
REMARK  221  A    between atoms: _551  and  _552
REMARK  222  A    between atoms: _554  and  _556
REMARK  223  A    between atoms: _556  and  _557
REMARK  224  A    between atoms: _556  and  _559
REMARK  225  A    between atoms: _559  and  _560
REMARK  226  A    between atoms: _565  and  _567
REMARK  227  A    between atoms: _567  and  _568
REMARK  228  A    between atoms: _567  and  _570
REMARK  229  A    between atoms: _570  and  _571
REMARK  230  A    between atoms: _576  and  _578
REMARK  231  A    between atoms: _578  and  _579
REMARK  232  A    between atoms: _578  and  _581
REMARK  233  A    between atoms: _581  and  _582
REMARK  234  A    between atoms: _582  and  _583
REMARK  235  A    between atoms: _585  and  _587
REMARK  236  A    between atoms: _587  and  _588
REMARK  237  A    between atoms: _587  and  _590
REMARK  238  A    between atoms: _590  and  _591
REMARK  239  A    between atoms: _591  and  _592
REMARK  240  A    between atoms: _597  and  _599
REMARK  241  A    between atoms: _599  and  _600
REMARK  242  A    between atoms: _603  and  _605
REMARK  243  A    between atoms: _605  and  _606
REMARK  244  A    between atoms: _605  and  _608
REMARK  245  A    between atoms: _608  and  _609
REMARK  246  A    between atoms: _614  and  _616
REMARK  247  A    between atoms: _616  and  _617
REMARK  248  A    between atoms: _616  and  _619
REMARK  249  A    between atoms: _619  and  _620
REMARK  250  A    between atoms: _620  and  _621
REMARK  251  A    between atoms: _623  and  _625
REMARK  252  A    between atoms: _625  and  _626
REMARK  253  A    between atoms: _625  and  _628
REMARK  254  A    between atoms: _628  and  _629
REMARK  255  A    between atoms: _629  and  _630
REMARK  256  A    between atoms: _630  and  _631
REMARK  257  A    between atoms: _640  and  _642
REMARK  258  A    between atoms: _642  and  _643
REMARK  259  A    between atoms: _642  and  _645
REMARK  260  A    between atoms: _645  and  _646
REMARK  261  A    between atoms: _646  and  _647
REMARK  262  A    between atoms: _647  and  _648
REMARK  263  A    between atoms: _648  and  _649
REMARK  264  A    between atoms: _653  and  _655
REMARK  265  A    between atoms: _655  and  _656
REMARK  266  A    between atoms: _655  and  _658
REMARK  267  A    between atoms: _658  and  _659
REMARK  268  A    between atoms: _661  and  _663
REMARK  269  A    between atoms: _663  and  _664
REMARK  270  A    between atoms: _663  and  _666
REMARK  271  A    between atoms: _666  and  _667
REMARK  272  A    between atoms: _667  and  _668
REMARK  273  A    between atoms: _668  and  _669
REMARK  274  A    between atoms: _678  and  _680
REMARK  275  A    between atoms: _680  and  _681
REMARK  276  A    between atoms: _680  and  _683
REMARK  277  A    between atoms: _683  and  _684
REMARK  278  A    between atoms: _684  and  _685
REMARK  279  A    between atoms: _685  and  _686
REMARK  280  A    between atoms: _686  and  _687
REMARK  281  A    between atoms: _691  and  _693
REMARK  282  A    between atoms: _693  and  _694
REMARK  283  A    between atoms: _693  and  _696
REMARK  284  A    between atoms: _696  and  _697
REMARK  285  A    between atoms: _700  and  _702
REMARK  286  A    between atoms: _702  and  _703
REMARK  287  A    between atoms: _702  and  _705
REMARK  288  A    between atoms: _705  and  _706
REMARK                            x       y       z     vdW  Elec       q    Type
REMARK                         _______ _______ _______ _____ _____    ______ ____
ROOT
ATOM      1  O   HOH     1       6.755  16.269  49.343  0.00  0.00    +0.000 OA
ENDROOT
TORSDOF 0
REMARK  Name = ../refined-set-2016/3t6b/3t6b_pocket.pdb
REMARK  288 active torsions:
REMARK  status: ('A' for Active; 'I' for Inactive)
REMARK    1  A    between atoms: _1  and  _3
REMARK    2  A    between atoms: _3  and  _4
REMARK    3  A    between atoms: _6  and  _8
REMARK    4  A    between atoms: _8  and  _9
REMARK    5  A    between atoms: _8  and  _11
REMARK    6  A    between atoms: _11  and  _12
REMARK    7  A    between atoms: _14  and  _16
REMARK    8  A    between atoms: _16  and  _17
REMARK    9  A    between atoms: _16  and  _19
REMARK   10  A    between atoms: _19  and  _20
REMARK   11  A    between atoms: _23  and  _25
REMARK   12  A    between atoms: _25  and  _26
REMARK   13  A    between atoms: _25  and  _28
REMARK   14  A    between atoms: _28  and  _29
REMARK   15  A    between atoms: _31  and  _33
REMARK   16  A    between atoms: _33  and  _34
REMARK   17  A    between atoms: _33  and  _36
REMARK   18  A    between atoms: _36  and  _37
REMARK   19  A    between atoms: _43  and  _45
REMARK   20  A    between atoms: _45  and  _46
REMARK   21  A    between atoms: _45  and  _48
REMARK   22  A    between atoms: _48  and  _49
REMARK   23  A    between atoms: _54  and  _55
REMARK   24  A    between atoms: _57  and  _59
REMARK   25  A    between atoms: _59  and  _60
REMARK   26  A    between atoms: _59  and  _62
REMARK   27  A    between atoms: _62  and  _63
REMARK   28  A    between atoms: _66  and  _68
REMARK   29  A    between atoms: _68  and  _69
REMARK   30  A    between atoms: _68  and  _71
REMARK   31  A    between atoms: _71  and  _72
REMARK   32  A    between atoms: _72  and  _73
REMARK   33  A    between atoms: _76  and  _78
REMARK   34  A    between atoms: _78  and  _79
REMARK   35  A    between atoms: _78  and  _81
REMARK   36  A    between atoms: _81  and  _82
REMARK   37  A    between atoms: _84  and  _86
REMARK   38  A    between atoms: _86  and  _87
REMARK   39  A    between atoms: _86  and  _89
REMARK   40  A    between atoms: _89  and  _90
REMARK   41  A    between atoms: _95  and  _96
REMARK   42  A    between atoms: _98  and  _100
REMARK   43  A    between atoms: _100  and  _101
REMARK   44  A    between atoms: _100  and  _103
REMARK   45  A    between atoms: _103  and  _104
REMARK   46  A    between atoms: _104  and  _105
REMARK   47  A    between atoms: _108  and  _110
REMARK   48  A    between atoms: _110  and  _111
REMARK   49  A    between atoms: _110  and  _113
REMARK   50  A    between atoms: _113  and  _114
REMARK   51  A    between atoms: _120  and  _122
REMARK   52  A    between atoms: _122  and  _123
REMARK   53  A    between atoms: _122  and  _125
REMARK   54  A    between atoms: _125  and  _126
REMARK   55  A    between atoms: _128  and  _130
REMARK   56  A    between atoms: _130  and  _131
REMARK   57  A    between atoms: _133  and  _135
REMARK   58  A    between atoms: _135  and  _136
REMARK   59  A    between atoms: _135  and  _138
REMARK   60  A    between atoms: _138  and  _139
REMARK   61  A    between atoms: _143  and  _144
REMARK   62  A    between atoms: _149  and  _151
REMARK   63  A    between atoms: _151  and  _152
REMARK   64  A    between atoms: _155  and  _157
REMARK   65  A    between atoms: _157  and  _158
REMARK   66  A    between atoms: _160  and  _162
REMARK   67  A    between atoms: _162  and  _163
REMARK   68  A    between atoms: _162  and  _165
REMARK   69  A    between atoms: _165  and  _166
REMARK   70  A    between atoms: _169  and  _171
REMARK   71  A    between atoms: _171  and  _172
REMARK   72  A    between atoms: _171  and  _174
REMARK   73  A    between atoms: _174  and  _175
REMARK   74  A    between atoms: _180  and  _182
REMARK   75  A    between atoms: _182  and  _183
REMARK   76  A    between atoms: _182  and  _185
REMARK   77  A    between atoms: _185  and  _186
REMARK   78  A    between atoms: _190  and  _191
REMARK   79  A    between atoms: _196  and  _198
REMARK   80  A    between atoms: _198  and  _199
REMARK   81  A    between atoms: _198  and  _201
REMARK   82  A    between atoms: _201  and  _202
REMARK   83  A    between atoms: _207  and  _209
REMARK   84  A    between atoms: _209  and  _210
REMARK   85  A    between atoms: _209  and  _212
REMARK   86  A    between atoms: _212  and  _213
REMARK   87  A    between atoms: _218  and  _219
REMARK   88  A    between atoms: _221  and  _223
REMARK   89  A    between atoms: _223  and  _224
REMARK   90  A    between atoms: _223  and  _226
REMARK   91  A    between atoms: _226  and  _227
REMARK   92  A    between atoms: _230  and  _232
REMARK   93  A    between atoms: _232  and  _233
REMARK   94  A    between atoms: _232  and  _235
REMARK   95  A    between atoms: _235  and  _236
REMARK   96  A    between atoms: _236  and  _237
REMARK   97  A    between atoms: _237  and  _238
REMARK   98  A    between atoms: _247  and  _249
REMARK   99  A    between atoms: _249  and  _250
REMARK  100  A    between atoms: _249  and  _252
REMARK  101  A    between atoms: _252  and  _253
REMARK  102  A    between atoms: _253  and  _254
REMARK  103  A    between atoms: _254  and  _255
REMARK  104  A    between atoms: _255  and  _256
REMARK  105  A    between atoms: _260  and  _262
REMARK  106  A    between atoms: _262  and  _263
REMARK  107  A    between atoms: _262  and  _265
REMARK  108  A    between atoms: _265  and  _266
REMARK  109  A    between atoms: _271  and  _273
REMARK  110  A    between atoms: _273  and  _274
REMARK  111  A    between atoms: _273  and  _276
REMARK  112  A    between atoms: _279  and  _281
REMARK  113  A    between atoms: _281  and  _282
REMARK  114  A    between atoms: _281  and  _284
REMARK  115  A    between atoms: _284  and  _285
REMARK  116  A    between atoms: _288  and  _290
REMARK  117  A    between atoms: _290  and  _291
REMARK  118  A    between atoms: _290  and  _293
REMARK  119  A    between atoms: _296  and  _298
REMARK  120  A    between atoms: _298  and  _299
REMARK  121  A    between atoms: _298  and  _301
REMARK  122  A    between atoms: _301  and  _302
REMARK  123  A    between atoms: _305  and  _307
REMARK  124  A    between atoms: _307  and  _308
REMARK  125  A    between atoms: _311  and  _313
REMARK  126  A    between atoms: _313  and  _314
REMARK  127  A    between atoms: _313  and  _316
REMARK  128  A    between atoms: _319  and  _321
REMARK  129  A    between atoms: _321  and  _322
REMARK  130  A    between atoms: _325  and  _327
REMARK  131  A    between atoms: _327  and  _328
REMARK  132  A    between atoms: _331  and  _333
REMARK  133  A    between atoms: _333  and  _334
REMARK  134  A    between atoms: _333  and  _336
REMARK  135  A    between atoms: _336  and  _337
REMARK  136  A    between atoms: _342  and  _343
REMARK  137  A    between atoms: _345  and  _347
REMARK  138  A    between atoms: _347  and  _348
REMARK  139  A    between atoms: _347  and  _350
REMARK  140  A    between atoms: _350  and  _351
REMARK  141  A    between atoms: _351  and  _352
REMARK  142  A    between atoms: _352  and  _353
REMARK  143  A    between atoms: _353  and  _354
REMARK  144  A    between atoms: _358  and  _360
REMARK  145  A    between atoms: _360  and  _361
REMARK  146  A    between atoms: _360  and  _363
REMARK  147  A    between atoms: _363  and  _364
REMARK  148  A    between atoms: _366  and  _368
REMARK  149  A    between atoms: _368  and  _369
REMARK  150  A    between atoms: _368  and  _371
REMARK  151  A    between atoms: _371  and  _372
REMARK  152  A    between atoms: _378  and  _380
REMARK  153  A    between atoms: _380  and  _381
REMARK  154  A    between atoms: _380  and  _383
REMARK  155  A    between atoms: _383  and  _384
REMARK  156  A    between atoms: _387  and  _389
REMARK  157  A    between atoms: _389  and  _390
REMARK  158  A    between atoms: _389  and  _392
REMARK  159  A    between atoms: _395  and  _397
REMARK  160  A    between atoms: _397  and  _398
REMARK  161  A    between atoms: _397  and  _400
REMARK  162  A    between atoms: _400  and  _401
REMARK  163  A    between atoms: _401  and  _402
REMARK  164  A    between atoms: _407  and  _409
REMARK  165  A    between atoms: _409  and  _410
REMARK  166  A    between atoms: _409  and  _412
REMARK  167  A    between atoms: _415  and  _417
REMARK  168  A    between atoms: _417  and  _418
REMARK  169  A    between atoms: _420  and  _422
REMARK  170  A    between atoms: _422  and  _423
REMARK  171  A    between atoms: _422  and  _425
REMARK  172  A    between atoms: _425  and  _426
REMARK  173  A    between atoms: _429  and  _431
REMARK  174  A    between atoms: _431  and  _432
REMARK  175  A    between atoms: _431  and  _434
REMARK  176  A    between atoms: _434  and  _435
REMARK  177  A    between atoms: _440  and  _442
REMARK  178  A    between atoms: _442  and  _443
REMARK  179  A    between atoms: _446  and  _448
REMARK  180  A    between atoms: _448  and  _449
REMARK  181  A    between atoms: _448  and  _451
REMARK  182  A    between atoms: _451  and  _452
REMARK  183  A    between atoms: _457  and  _459
REMARK  184  A    between atoms: _459  and  _460
REMARK  185  A    between atoms: _459  and  _462
REMARK  186  A    between atoms: _462  and  _463
REMARK  187  A    between atoms: _473  and  _475
REMARK  188  A    between atoms: _475  and  _476
REMARK  189  A    between atoms: _475  and  _478
REMARK  190  A    between atoms: _478  and  _479
REMARK  191  A    between atoms: _482  and  _484
REMARK  192  A    between atoms: _484  and  _485
REMARK  193  A    between atoms: _488  and  _490
REMARK  194  A    between atoms: _490  and  _491
REMARK  195  A    between atoms: _490  and  _493
REMARK  196  A    between atoms: _493  and  _494
REMARK  197  A    between atoms: _496  and  _498
REMARK  198  A    between atoms: _498  and  _499
REMARK  199  A    between atoms: _498  and  _501
REMARK  200  A    between atoms: _501  and  _502
REMARK  201  A    between atoms: _502  and  _503
REMARK  202  A    between atoms: _506  and  _508
REMARK  203  A    between atoms: _508  and  _509
REMARK  204  A    between atoms: _508  and  _511
REMARK  205  A    between atoms: _511  and  _512
REMARK  206  A    between atoms: _512  and  _513
REMARK  207  A    between atoms: _516  and  _518
REMARK  208  A    between atoms: _518  and  _519
REMARK  209  A    between atoms: _518  and  _521
REMARK  210  A    between atoms: _521  and  _522
REMARK  211  A    between atoms: _522  and  _523
REMARK  212  A    between atoms: _523  and  _524
REMARK  213  A    between atoms: _533  and  _535
REMARK  214  A    between atoms: _535  and  _536
REMARK  215  A    between atoms: _539  and  _541
REMARK  216  A    between atoms: _541  and  _542
REMARK  217  A    between atoms: _541  and  _544
REMARK  218  A    between atoms: _544  and  _545
REMARK  219  A    between atoms: _545  and  _546
REMARK  220  A    between atoms: _549  and  _551
REMARK  221  A    between atoms: _551  and  _552
REMARK  222  A    between atoms: _554  and  _556
REMARK  223  A    between atoms: _556  and  _557
REMARK  224  A    between atoms: _556  and  _559
REMARK  225  A    between atoms: _559  and  _560
REMARK  226  A    between atoms: _565  and  _567
REMARK  227  A    between atoms: _567  and  _568
REMARK  228  A    between atoms: _567  and  _570
REMARK  229  A    between atoms: _570  and  _571
REMARK  230  A    between atoms: _576  and  _578
REMARK  231  A    between atoms: _578  and  _579
REMARK  232  A    between atoms: _578  and  _581
REMARK  233  A    between atoms: _581  and  _582
REMARK  234  A    between atoms: _582  and  _583
REMARK  235  A    between atoms: _585  and  _587
REMARK  236  A    between atoms: _587  and  _588
REMARK  237  A    between atoms: _587  and  _590
REMARK  238  A    between atoms: _590  and  _591
REMARK  239  A    between atoms: _591  and  _592
REMARK  240  A    between atoms: _597  and  _599
REMARK  241  A    between atoms: _599  and  _600
REMARK  242  A    between atoms: _603  and  _605
REMARK  243  A    between atoms: _605  and  _606
REMARK  244  A    between atoms: _605  and  _608
REMARK  245  A    between atoms: _608  and  _609
REMARK  246  A    between atoms: _614  and  _616
REMARK  247  A    between atoms: _616  and  _617
REMARK  248  A    between atoms: _616  and  _619
REMARK  249  A    between atoms: _619  and  _620
REMARK  250  A    between atoms: _620  and  _621
REMARK  251  A    between atoms: _623  and  _625
REMARK  252  A    between atoms: _625  and  _626
REMARK  253  A    between atoms: _625  and  _628
REMARK  254  A    between atoms: _628  and  _629
REMARK  255  A    between atoms: _629  and  _630
REMARK  256  A    between atoms: _630  and  _631
REMARK  257  A    between atoms: _640  and  _642
REMARK  258  A    between atoms: _642  and  _643
REMARK  259  A    between atoms: _642  and  _645
REMARK  260  A    between atoms: _645  and  _646
REMARK  261  A    between atoms: _646  and  _647
REMARK  262  A    between atoms: _647  and  _648
REMARK  263  A    between atoms: _648  and  _649
REMARK  264  A    between atoms: _653  and  _655
REMARK  265  A    between atoms: _655  and  _656
REMARK  266  A    between atoms: _655  and  _658
REMARK  267  A    between atoms: _658  and  _659
REMARK  268  A    between atoms: _661  and  _663
REMARK  269  A    between atoms: _663  and  _664
REMARK  270  A    between atoms: _663  and  _666
REMARK  271  A    between atoms: _666  and  _667
REMARK  272  A    between atoms: _667  and  _668
REMARK  273  A    between atoms: _668  and  _669
REMARK  274  A    between atoms: _678  and  _680
REMARK  275  A    between atoms: _680  and  _681
REMARK  276  A    between atoms: _680  and  _683
REMARK  277  A    between atoms: _683  and  _684
REMARK  278  A    between atoms: _684  and  _685
REMARK  279  A    between atoms: _685  and  _686
REMARK  280  A    between atoms: _686  and  _687
REMARK  281  A    between atoms: _691  and  _693
REMARK  282  A    between atoms: _693  and  _694
REMARK  283  A    between atoms: _693  and  _696
REMARK  284  A    between atoms: _696  and  _697
REMARK  285  A    between atoms: _700  and  _702
REMARK  286  A    between atoms: _702  and  _703
REMARK  287  A    between atoms: _702  and  _705
REMARK  288  A    between atoms: _705  and  _706
REMARK                            x       y       z     vdW  Elec       q    Type
REMARK                         _______ _______ _______ _____ _____    ______ ____
ROOT
ATOM      1  O   HOH     1       4.641  15.627  47.283  0.00  0.00    +0.000 OA
ENDROOT
TORSDOF 0
REMARK  Name = ../refined-set-2016/3t6b/3t6b_pocket.pdb
REMARK  288 active torsions:
REMARK  status: ('A' for Active; 'I' for Inactive)
REMARK    1  A    between atoms: _1  and  _3
REMARK    2  A    between atoms: _3  and  _4
REMARK    3  A    between atoms: _6  and  _8
REMARK    4  A    between atoms: _8  and  _9
REMARK    5  A    between atoms: _8  and  _11
REMARK    6  A    between atoms: _11  and  _12
REMARK    7  A    between atoms: _14  and  _16
REMARK    8  A    between atoms: _16  and  _17
REMARK    9  A    between atoms: _16  and  _19
REMARK   10  A    between atoms: _19  and  _20
REMARK   11  A    between atoms: _23  and  _25
REMARK   12  A    between atoms: _25  and  _26
REMARK   13  A    between atoms: _25  and  _28
REMARK   14  A    between atoms: _28  and  _29
REMARK   15  A    between atoms: _31  and  _33
REMARK   16  A    between atoms: _33  and  _34
REMARK   17  A    between atoms: _33  and  _36
REMARK   18  A    between atoms: _36  and  _37
REMARK   19  A    between atoms: _43  and  _45
REMARK   20  A    between atoms: _45  and  _46
REMARK   21  A    between atoms: _45  and  _48
REMARK   22  A    between atoms: _48  and  _49
REMARK   23  A    between atoms: _54  and  _55
REMARK   24  A    between atoms: _57  and  _59
REMARK   25  A    between atoms: _59  and  _60
REMARK   26  A    between atoms: _59  and  _62
REMARK   27  A    between atoms: _62  and  _63
REMARK   28  A    between atoms: _66  and  _68
REMARK   29  A    between atoms: _68  and  _69
REMARK   30  A    between atoms: _68  and  _71
REMARK   31  A    between atoms: _71  and  _72
REMARK   32  A    between atoms: _72  and  _73
REMARK   33  A    between atoms: _76  and  _78
REMARK   34  A    between atoms: _78  and  _79
REMARK   35  A    between atoms: _78  and  _81
REMARK   36  A    between atoms: _81  and  _82
REMARK   37  A    between atoms: _84  and  _86
REMARK   38  A    between atoms: _86  and  _87
REMARK   39  A    between atoms: _86  and  _89
REMARK   40  A    between atoms: _89  and  _90
REMARK   41  A    between atoms: _95  and  _96
REMARK   42  A    between atoms: _98  and  _100
REMARK   43  A    between atoms: _100  and  _101
REMARK   44  A    between atoms: _100  and  _103
REMARK   45  A    between atoms: _103  and  _104
REMARK   46  A    between atoms: _104  and  _105
REMARK   47  A    between atoms: _108  and  _110
REMARK   48  A    between atoms: _110  and  _111
REMARK   49  A    between atoms: _110  and  _113
REMARK   50  A    between atoms: _113  and  _114
REMARK   51  A    between atoms: _120  and  _122
REMARK   52  A    between atoms: _122  and  _123
REMARK   53  A    between atoms: _122  and  _125
REMARK   54  A    between atoms: _125  and  _126
REMARK   55  A    between atoms: _128  and  _130
REMARK   56  A    between atoms: _130  and  _131
REMARK   57  A    between atoms: _133  and  _135
REMARK   58  A    between atoms: _135  and  _136
REMARK   59  A    between atoms: _135  and  _138
REMARK   60  A    between atoms: _138  and  _139
REMARK   61  A    between atoms: _143  and  _144
REMARK   62  A    between atoms: _149  and  _151
REMARK   63  A    between atoms: _151  and  _152
REMARK   64  A    between atoms: _155  and  _157
REMARK   65  A    between atoms: _157  and  _158
REMARK   66  A    between atoms: _160  and  _162
REMARK   67  A    between atoms: _162  and  _163
REMARK   68  A    between atoms: _162  and  _165
REMARK   69  A    between atoms: _165  and  _166
REMARK   70  A    between atoms: _169  and  _171
REMARK   71  A    between atoms: _171  and  _172
REMARK   72  A    between atoms: _171  and  _174
REMARK   73  A    between atoms: _174  and  _175
REMARK   74  A    between atoms: _180  and  _182
REMARK   75  A    between atoms: _182  and  _183
REMARK   76  A    between atoms: _182  and  _185
REMARK   77  A    between atoms: _185  and  _186
REMARK   78  A    between atoms: _190  and  _191
REMARK   79  A    between atoms: _196  and  _198
REMARK   80  A    between atoms: _198  and  _199
REMARK   81  A    between atoms: _198  and  _201
REMARK   82  A    between atoms: _201  and  _202
REMARK   83  A    between atoms: _207  and  _209
REMARK   84  A    between atoms: _209  and  _210
REMARK   85  A    between atoms: _209  and  _212
REMARK   86  A    between atoms: _212  and  _213
REMARK   87  A    between atoms: _218  and  _219
REMARK   88  A    between atoms: _221  and  _223
REMARK   89  A    between atoms: _223  and  _224
REMARK   90  A    between atoms: _223  and  _226
REMARK   91  A    between atoms: _226  and  _227
REMARK   92  A    between atoms: _230  and  _232
REMARK   93  A    between atoms: _232  and  _233
REMARK   94  A    between atoms: _232  and  _235
REMARK   95  A    between atoms: _235  and  _236
REMARK   96  A    between atoms: _236  and  _237
REMARK   97  A    between atoms: _237  and  _238
REMARK   98  A    between atoms: _247  and  _249
REMARK   99  A    between atoms: _249  and  _250
REMARK  100  A    between atoms: _249  and  _252
REMARK  101  A    between atoms: _252  and  _253
REMARK  102  A    between atoms: _253  and  _254
REMARK  103  A    between atoms: _254  and  _255
REMARK  104  A    between atoms: _255  and  _256
REMARK  105  A    between atoms: _260  and  _262
REMARK  106  A    between atoms: _262  and  _263
REMARK  107  A    between atoms: _262  and  _265
REMARK  108  A    between atoms: _265  and  _266
REMARK  109  A    between atoms: _271  and  _273
REMARK  110  A    between atoms: _273  and  _274
REMARK  111  A    between atoms: _273  and  _276
REMARK  112  A    between atoms: _279  and  _281
REMARK  113  A    between atoms: _281  and  _282
REMARK  114  A    between atoms: _281  and  _284
REMARK  115  A    between atoms: _284  and  _285
REMARK  116  A    between atoms: _288  and  _290
REMARK  117  A    between atoms: _290  and  _291
REMARK  118  A    between atoms: _290  and  _293
REMARK  119  A    between atoms: _296  and  _298
REMARK  120  A    between atoms: _298  and  _299
REMARK  121  A    between atoms: _298  and  _301
REMARK  122  A    between atoms: _301  and  _302
REMARK  123  A    between atoms: _305  and  _307
REMARK  124  A    between atoms: _307  and  _308
REMARK  125  A    between atoms: _311  and  _313
REMARK  126  A    between atoms: _313  and  _314
REMARK  127  A    between atoms: _313  and  _316
REMARK  128  A    between atoms: _319  and  _321
REMARK  129  A    between atoms: _321  and  _322
REMARK  130  A    between atoms: _325  and  _327
REMARK  131  A    between atoms: _327  and  _328
REMARK  132  A    between atoms: _331  and  _333
REMARK  133  A    between atoms: _333  and  _334
REMARK  134  A    between atoms: _333  and  _336
REMARK  135  A    between atoms: _336  and  _337
REMARK  136  A    between atoms: _342  and  _343
REMARK  137  A    between atoms: _345  and  _347
REMARK  138  A    between atoms: _347  and  _348
REMARK  139  A    between atoms: _347  and  _350
REMARK  140  A    between atoms: _350  and  _351
REMARK  141  A    between atoms: _351  and  _352
REMARK  142  A    between atoms: _352  and  _353
REMARK  143  A    between atoms: _353  and  _354
REMARK  144  A    between atoms: _358  and  _360
REMARK  145  A    between atoms: _360  and  _361
REMARK  146  A    between atoms: _360  and  _363
REMARK  147  A    between atoms: _363  and  _364
REMARK  148  A    between atoms: _366  and  _368
REMARK  149  A    between atoms: _368  and  _369
REMARK  150  A    between atoms: _368  and  _371
REMARK  151  A    between atoms: _371  and  _372
REMARK  152  A    between atoms: _378  and  _380
REMARK  153  A    between atoms: _380  and  _381
REMARK  154  A    between atoms: _380  and  _383
REMARK  155  A    between atoms: _383  and  _384
REMARK  156  A    between atoms: _387  and  _389
REMARK  157  A    between atoms: _389  and  _390
REMARK  158  A    between atoms: _389  and  _392
REMARK  159  A    between atoms: _395  and  _397
REMARK  160  A    between atoms: _397  and  _398
REMARK  161  A    between atoms: _397  and  _400
REMARK  162  A    between atoms: _400  and  _401
REMARK  163  A    between atoms: _401  and  _402
REMARK  164  A    between atoms: _407  and  _409
REMARK  165  A    between atoms: _409  and  _410
REMARK  166  A    between atoms: _409  and  _412
REMARK  167  A    between atoms: _415  and  _417
REMARK  168  A    between atoms: _417  and  _418
REMARK  169  A    between atoms: _420  and  _422
REMARK  170  A    between atoms: _422  and  _423
REMARK  171  A    between atoms: _422  and  _425
REMARK  172  A    between atoms: _425  and  _426
REMARK  173  A    between atoms: _429  and  _431
REMARK  174  A    between atoms: _431  and  _432
REMARK  175  A    between atoms: _431  and  _434
REMARK  176  A    between atoms: _434  and  _435
REMARK  177  A    between atoms: _440  and  _442
REMARK  178  A    between atoms: _442  and  _443
REMARK  179  A    between atoms: _446  and  _448
REMARK  180  A    between atoms: _448  and  _449
REMARK  181  A    between atoms: _448  and  _451
REMARK  182  A    between atoms: _451  and  _452
REMARK  183  A    between atoms: _457  and  _459
REMARK  184  A    between atoms: _459  and  _460
REMARK  185  A    between atoms: _459  and  _462
REMARK  186  A    between atoms: _462  and  _463
REMARK  187  A    between atoms: _473  and  _475
REMARK  188  A    between atoms: _475  and  _476
REMARK  189  A    between atoms: _475  and  _478
REMARK  190  A    between atoms: _478  and  _479
REMARK  191  A    between atoms: _482  and  _484
REMARK  192  A    between atoms: _484  and  _485
REMARK  193  A    between atoms: _488  and  _490
REMARK  194  A    between atoms: _490  and  _491
REMARK  195  A    between atoms: _490  and  _493
REMARK  196  A    between atoms: _493  and  _494
REMARK  197  A    between atoms: _496  and  _498
REMARK  198  A    between atoms: _498  and  _499
REMARK  199  A    between atoms: _498  and  _501
REMARK  200  A    between atoms: _501  and  _502
REMARK  201  A    between atoms: _502  and  _503
REMARK  202  A    between atoms: _506  and  _508
REMARK  203  A    between atoms: _508  and  _509
REMARK  204  A    between atoms: _508  and  _511
REMARK  205  A    between atoms: _511  and  _512
REMARK  206  A    between atoms: _512  and  _513
REMARK  207  A    between atoms: _516  and  _518
REMARK  208  A    between atoms: _518  and  _519
REMARK  209  A    between atoms: _518  and  _521
REMARK  210  A    between atoms: _521  and  _522
REMARK  211  A    between atoms: _522  and  _523
REMARK  212  A    between atoms: _523  and  _524
REMARK  213  A    between atoms: _533  and  _535
REMARK  214  A    between atoms: _535  and  _536
REMARK  215  A    between atoms: _539  and  _541
REMARK  216  A    between atoms: _541  and  _542
REMARK  217  A    between atoms: _541  and  _544
REMARK  218  A    between atoms: _544  and  _545
REMARK  219  A    between atoms: _545  and  _546
REMARK  220  A    between atoms: _549  and  _551
REMARK  221  A    between atoms: _551  and  _552
REMARK  222  A    between atoms: _554  and  _556
REMARK  223  A    between atoms: _556  and  _557
REMARK  224  A    between atoms: _556  and  _559
REMARK  225  A    between atoms: _559  and  _560
REMARK  226  A    between atoms: _565  and  _567
REMARK  227  A    between atoms: _567  and  _568
REMARK  228  A    between atoms: _567  and  _570
REMARK  229  A    between atoms: _570  and  _571
REMARK  230  A    between atoms: _576  and  _578
REMARK  231  A    between atoms: _578  and  _579
REMARK  232  A    between atoms: _578  and  _581
REMARK  233  A    between atoms: _581  and  _582
REMARK  234  A    between atoms: _582  and  _583
REMARK  235  A    between atoms: _585  and  _587
REMARK  236  A    between atoms: _587  and  _588
REMARK  237  A    between atoms: _587  and  _590
REMARK  238  A    between atoms: _590  and  _591
REMARK  239  A    between atoms: _591  and  _592
REMARK  240  A    between atoms: _597  and  _599
REMARK  241  A    between atoms: _599  and  _600
REMARK  242  A    between atoms: _603  and  _605
REMARK  243  A    between atoms: _605  and  _606
REMARK  244  A    between atoms: _605  and  _608
REMARK  245  A    between atoms: _608  and  _609
REMARK  246  A    between atoms: _614  and  _616
REMARK  247  A    between atoms: _616  and  _617
REMARK  248  A    between atoms: _616  and  _619
REMARK  249  A    between atoms: _619  and  _620
REMARK  250  A    between atoms: _620  and  _621
REMARK  251  A    between atoms: _623  and  _625
REMARK  252  A    between atoms: _625  and  _626
REMARK  253  A    between atoms: _625  and  _628
REMARK  254  A    between atoms: _628  and  _629
REMARK  255  A    between atoms: _629  and  _630
REMARK  256  A    between atoms: _630  and  _631
REMARK  257  A    between atoms: _640  and  _642
REMARK  258  A    between atoms: _642  and  _643
REMARK  259  A    between atoms: _642  and  _645
REMARK  260  A    between atoms: _645  and  _646
REMARK  261  A    between atoms: _646  and  _647
REMARK  262  A    between atoms: _647  and  _648
REMARK  263  A    between atoms: _648  and  _649
REMARK  264  A    between atoms: _653  and  _655
REMARK  265  A    between atoms: _655  and  _656
REMARK  266  A    between atoms: _655  and  _658
REMARK  267  A    between atoms: _658  and  _659
REMARK  268  A    between atoms: _661  and  _663
REMARK  269  A    between atoms: _663  and  _664
REMARK  270  A    between atoms: _663  and  _666
REMARK  271  A    between atoms: _666  and  _667
REMARK  272  A    between atoms: _667  and  _668
REMARK  273  A    between atoms: _668  and  _669
REMARK  274  A    between atoms: _678  and  _680
REMARK  275  A    between atoms: _680  and  _681
REMARK  276  A    between atoms: _680  and  _683
REMARK  277  A    between atoms: _683  and  _684
REMARK  278  A    between atoms: _684  and  _685
REMARK  279  A    between atoms: _685  and  _686
REMARK  280  A    between atoms: _686  and  _687
REMARK  281  A    between atoms: _691  and  _693
REMARK  282  A    between atoms: _693  and  _694
REMARK  283  A    between atoms: _693  and  _696
REMARK  284  A    between atoms: _696  and  _697
REMARK  285  A    between atoms: _700  and  _702
REMARK  286  A    between atoms: _702  and  _703
REMARK  287  A    between atoms: _702  and  _705
REMARK  288  A    between atoms: _705  and  _706
REMARK                            x       y       z     vdW  Elec       q    Type
REMARK                         _______ _______ _______ _____ _____    ______ ____
ROOT
ATOM      1  O   HOH     1      20.474  19.816  59.607  0.00  0.00    +0.000 OA
ENDROOT
TORSDOF 0
REMARK  Name = ../refined-set-2016/3t6b/3t6b_pocket.pdb
REMARK  288 active torsions:
REMARK  status: ('A' for Active; 'I' for Inactive)
REMARK    1  A    between atoms: _1  and  _3
REMARK    2  A    between atoms: _3  and  _4
REMARK    3  A    between atoms: _6  and  _8
REMARK    4  A    between atoms: _8  and  _9
REMARK    5  A    between atoms: _8  and  _11
REMARK    6  A    between atoms: _11  and  _12
REMARK    7  A    between atoms: _14  and  _16
REMARK    8  A    between atoms: _16  and  _17
REMARK    9  A    between atoms: _16  and  _19
REMARK   10  A    between atoms: _19  and  _20
REMARK   11  A    between atoms: _23  and  _25
REMARK   12  A    between atoms: _25  and  _26
REMARK   13  A    between atoms: _25  and  _28
REMARK   14  A    between atoms: _28  and  _29
REMARK   15  A    between atoms: _31  and  _33
REMARK   16  A    between atoms: _33  and  _34
REMARK   17  A    between atoms: _33  and  _36
REMARK   18  A    between atoms: _36  and  _37
REMARK   19  A    between atoms: _43  and  _45
REMARK   20  A    between atoms: _45  and  _46
REMARK   21  A    between atoms: _45  and  _48
REMARK   22  A    between atoms: _48  and  _49
REMARK   23  A    between atoms: _54  and  _55
REMARK   24  A    between atoms: _57  and  _59
REMARK   25  A    between atoms: _59  and  _60
REMARK   26  A    between atoms: _59  and  _62
REMARK   27  A    between atoms: _62  and  _63
REMARK   28  A    between atoms: _66  and  _68
REMARK   29  A    between atoms: _68  and  _69
REMARK   30  A    between atoms: _68  and  _71
REMARK   31  A    between atoms: _71  and  _72
REMARK   32  A    between atoms: _72  and  _73
REMARK   33  A    between atoms: _76  and  _78
REMARK   34  A    between atoms: _78  and  _79
REMARK   35  A    between atoms: _78  and  _81
REMARK   36  A    between atoms: _81  and  _82
REMARK   37  A    between atoms: _84  and  _86
REMARK   38  A    between atoms: _86  and  _87
REMARK   39  A    between atoms: _86  and  _89
REMARK   40  A    between atoms: _89  and  _90
REMARK   41  A    between atoms: _95  and  _96
REMARK   42  A    between atoms: _98  and  _100
REMARK   43  A    between atoms: _100  and  _101
REMARK   44  A    between atoms: _100  and  _103
REMARK   45  A    between atoms: _103  and  _104
REMARK   46  A    between atoms: _104  and  _105
REMARK   47  A    between atoms: _108  and  _110
REMARK   48  A    between atoms: _110  and  _111
REMARK   49  A    between atoms: _110  and  _113
REMARK   50  A    between atoms: _113  and  _114
REMARK   51  A    between atoms: _120  and  _122
REMARK   52  A    between atoms: _122  and  _123
REMARK   53  A    between atoms: _122  and  _125
REMARK   54  A    between atoms: _125  and  _126
REMARK   55  A    between atoms: _128  and  _130
REMARK   56  A    between atoms: _130  and  _131
REMARK   57  A    between atoms: _133  and  _135
REMARK   58  A    between atoms: _135  and  _136
REMARK   59  A    between atoms: _135  and  _138
REMARK   60  A    between atoms: _138  and  _139
REMARK   61  A    between atoms: _143  and  _144
REMARK   62  A    between atoms: _149  and  _151
REMARK   63  A    between atoms: _151  and  _152
REMARK   64  A    between atoms: _155  and  _157
REMARK   65  A    between atoms: _157  and  _158
REMARK   66  A    between atoms: _160  and  _162
REMARK   67  A    between atoms: _162  and  _163
REMARK   68  A    between atoms: _162  and  _165
REMARK   69  A    between atoms: _165  and  _166
REMARK   70  A    between atoms: _169  and  _171
REMARK   71  A    between atoms: _171  and  _172
REMARK   72  A    between atoms: _171  and  _174
REMARK   73  A    between atoms: _174  and  _175
REMARK   74  A    between atoms: _180  and  _182
REMARK   75  A    between atoms: _182  and  _183
REMARK   76  A    between atoms: _182  and  _185
REMARK   77  A    between atoms: _185  and  _186
REMARK   78  A    between atoms: _190  and  _191
REMARK   79  A    between atoms: _196  and  _198
REMARK   80  A    between atoms: _198  and  _199
REMARK   81  A    between atoms: _198  and  _201
REMARK   82  A    between atoms: _201  and  _202
REMARK   83  A    between atoms: _207  and  _209
REMARK   84  A    between atoms: _209  and  _210
REMARK   85  A    between atoms: _209  and  _212
REMARK   86  A    between atoms: _212  and  _213
REMARK   87  A    between atoms: _218  and  _219
REMARK   88  A    between atoms: _221  and  _223
REMARK   89  A    between atoms: _223  and  _224
REMARK   90  A    between atoms: _223  and  _226
REMARK   91  A    between atoms: _226  and  _227
REMARK   92  A    between atoms: _230  and  _232
REMARK   93  A    between atoms: _232  and  _233
REMARK   94  A    between atoms: _232  and  _235
REMARK   95  A    between atoms: _235  and  _236
REMARK   96  A    between atoms: _236  and  _237
REMARK   97  A    between atoms: _237  and  _238
REMARK   98  A    between atoms: _247  and  _249
REMARK   99  A    between atoms: _249  and  _250
REMARK  100  A    between atoms: _249  and  _252
REMARK  101  A    between atoms: _252  and  _253
REMARK  102  A    between atoms: _253  and  _254
REMARK  103  A    between atoms: _254  and  _255
REMARK  104  A    between atoms: _255  and  _256
REMARK  105  A    between atoms: _260  and  _262
REMARK  106  A    between atoms: _262  and  _263
REMARK  107  A    between atoms: _262  and  _265
REMARK  108  A    between atoms: _265  and  _266
REMARK  109  A    between atoms: _271  and  _273
REMARK  110  A    between atoms: _273  and  _274
REMARK  111  A    between atoms: _273  and  _276
REMARK  112  A    between atoms: _279  and  _281
REMARK  113  A    between atoms: _281  and  _282
REMARK  114  A    between atoms: _281  and  _284
REMARK  115  A    between atoms: _284  and  _285
REMARK  116  A    between atoms: _288  and  _290
REMARK  117  A    between atoms: _290  and  _291
REMARK  118  A    between atoms: _290  and  _293
REMARK  119  A    between atoms: _296  and  _298
REMARK  120  A    between atoms: _298  and  _299
REMARK  121  A    between atoms: _298  and  _301
REMARK  122  A    between atoms: _301  and  _302
REMARK  123  A    between atoms: _305  and  _307
REMARK  124  A    between atoms: _307  and  _308
REMARK  125  A    between atoms: _311  and  _313
REMARK  126  A    between atoms: _313  and  _314
REMARK  127  A    between atoms: _313  and  _316
REMARK  128  A    between atoms: _319  and  _321
REMARK  129  A    between atoms: _321  and  _322
REMARK  130  A    between atoms: _325  and  _327
REMARK  131  A    between atoms: _327  and  _328
REMARK  132  A    between atoms: _331  and  _333
REMARK  133  A    between atoms: _333  and  _334
REMARK  134  A    between atoms: _333  and  _336
REMARK  135  A    between atoms: _336  and  _337
REMARK  136  A    between atoms: _342  and  _343
REMARK  137  A    between atoms: _345  and  _347
REMARK  138  A    between atoms: _347  and  _348
REMARK  139  A    between atoms: _347  and  _350
REMARK  140  A    between atoms: _350  and  _351
REMARK  141  A    between atoms: _351  and  _352
REMARK  142  A    between atoms: _352  and  _353
REMARK  143  A    between atoms: _353  and  _354
REMARK  144  A    between atoms: _358  and  _360
REMARK  145  A    between atoms: _360  and  _361
REMARK  146  A    between atoms: _360  and  _363
REMARK  147  A    between atoms: _363  and  _364
REMARK  148  A    between atoms: _366  and  _368
REMARK  149  A    between atoms: _368  and  _369
REMARK  150  A    between atoms: _368  and  _371
REMARK  151  A    between atoms: _371  and  _372
REMARK  152  A    between atoms: _378  and  _380
REMARK  153  A    between atoms: _380  and  _381
REMARK  154  A    between atoms: _380  and  _383
REMARK  155  A    between atoms: _383  and  _384
REMARK  156  A    between atoms: _387  and  _389
REMARK  157  A    between atoms: _389  and  _390
REMARK  158  A    between atoms: _389  and  _392
REMARK  159  A    between atoms: _395  and  _397
REMARK  160  A    between atoms: _397  and  _398
REMARK  161  A    between atoms: _397  and  _400
REMARK  162  A    between atoms: _400  and  _401
REMARK  163  A    between atoms: _401  and  _402
REMARK  164  A    between atoms: _407  and  _409
REMARK  165  A    between atoms: _409  and  _410
REMARK  166  A    between atoms: _409  and  _412
REMARK  167  A    between atoms: _415  and  _417
REMARK  168  A    between atoms: _417  and  _418
REMARK  169  A    between atoms: _420  and  _422
REMARK  170  A    between atoms: _422  and  _423
REMARK  171  A    between atoms: _422  and  _425
REMARK  172  A    between atoms: _425  and  _426
REMARK  173  A    between atoms: _429  and  _431
REMARK  174  A    between atoms: _431  and  _432
REMARK  175  A    between atoms: _431  and  _434
REMARK  176  A    between atoms: _434  and  _435
REMARK  177  A    between atoms: _440  and  _442
REMARK  178  A    between atoms: _442  and  _443
REMARK  179  A    between atoms: _446  and  _448
REMARK  180  A    between atoms: _448  and  _449
REMARK  181  A    between atoms: _448  and  _451
REMARK  182  A    between atoms: _451  and  _452
REMARK  183  A    between atoms: _457  and  _459
REMARK  184  A    between atoms: _459  and  _460
REMARK  185  A    between atoms: _459  and  _462
REMARK  186  A    between atoms: _462  and  _463
REMARK  187  A    between atoms: _473  and  _475
REMARK  188  A    between atoms: _475  and  _476
REMARK  189  A    between atoms: _475  and  _478
REMARK  190  A    between atoms: _478  and  _479
REMARK  191  A    between atoms: _482  and  _484
REMARK  192  A    between atoms: _484  and  _485
REMARK  193  A    between atoms: _488  and  _490
REMARK  194  A    between atoms: _490  and  _491
REMARK  195  A    between atoms: _490  and  _493
REMARK  196  A    between atoms: _493  and  _494
REMARK  197  A    between atoms: _496  and  _498
REMARK  198  A    between atoms: _498  and  _499
REMARK  199  A    between atoms: _498  and  _501
REMARK  200  A    between atoms: _501  and  _502
REMARK  201  A    between atoms: _502  and  _503
REMARK  202  A    between atoms: _506  and  _508
REMARK  203  A    between atoms: _508  and  _509
REMARK  204  A    between atoms: _508  and  _511
REMARK  205  A    between atoms: _511  and  _512
REMARK  206  A    between atoms: _512  and  _513
REMARK  207  A    between atoms: _516  and  _518
REMARK  208  A    between atoms: _518  and  _519
REMARK  209  A    between atoms: _518  and  _521
REMARK  210  A    between atoms: _521  and  _522
REMARK  211  A    between atoms: _522  and  _523
REMARK  212  A    between atoms: _523  and  _524
REMARK  213  A    between atoms: _533  and  _535
REMARK  214  A    between atoms: _535  and  _536
REMARK  215  A    between atoms: _539  and  _541
REMARK  216  A    between atoms: _541  and  _542
REMARK  217  A    between atoms: _541  and  _544
REMARK  218  A    between atoms: _544  and  _545
REMARK  219  A    between atoms: _545  and  _546
REMARK  220  A    between atoms: _549  and  _551
REMARK  221  A    between atoms: _551  and  _552
REMARK  222  A    between atoms: _554  and  _556
REMARK  223  A    between atoms: _556  and  _557
REMARK  224  A    between atoms: _556  and  _559
REMARK  225  A    between atoms: _559  and  _560
REMARK  226  A    between atoms: _565  and  _567
REMARK  227  A    between atoms: _567  and  _568
REMARK  228  A    between atoms: _567  and  _570
REMARK  229  A    between atoms: _570  and  _571
REMARK  230  A    between atoms: _576  and  _578
REMARK  231  A    between atoms: _578  and  _579
REMARK  232  A    between atoms: _578  and  _581
REMARK  233  A    between atoms: _581  and  _582
REMARK  234  A    between atoms: _582  and  _583
REMARK  235  A    between atoms: _585  and  _587
REMARK  236  A    between atoms: _587  and  _588
REMARK  237  A    between atoms: _587  and  _590
REMARK  238  A    between atoms: _590  and  _591
REMARK  239  A    between atoms: _591  and  _592
REMARK  240  A    between atoms: _597  and  _599
REMARK  241  A    between atoms: _599  and  _600
REMARK  242  A    between atoms: _603  and  _605
REMARK  243  A    between atoms: _605  and  _606
REMARK  244  A    between atoms: _605  and  _608
REMARK  245  A    between atoms: _608  and  _609
REMARK  246  A    between atoms: _614  and  _616
REMARK  247  A    between atoms: _616  and  _617
REMARK  248  A    between atoms: _616  and  _619
REMARK  249  A    between atoms: _619  and  _620
REMARK  250  A    between atoms: _620  and  _621
REMARK  251  A    between atoms: _623  and  _625
REMARK  252  A    between atoms: _625  and  _626
REMARK  253  A    between atoms: _625  and  _628
REMARK  254  A    between atoms: _628  and  _629
REMARK  255  A    between atoms: _629  and  _630
REMARK  256  A    between atoms: _630  and  _631
REMARK  257  A    between atoms: _640  and  _642
REMARK  258  A    between atoms: _642  and  _643
REMARK  259  A    between atoms: _642  and  _645
REMARK  260  A    between atoms: _645  and  _646
REMARK  261  A    between atoms: _646  and  _647
REMARK  262  A    between atoms: _647  and  _648
REMARK  263  A    between atoms: _648  and  _649
REMARK  264  A    between atoms: _653  and  _655
REMARK  265  A    between atoms: _655  and  _656
REMARK  266  A    between atoms: _655  and  _658
REMARK  267  A    between atoms: _658  and  _659
REMARK  268  A    between atoms: _661  and  _663
REMARK  269  A    between atoms: _663  and  _664
REMARK  270  A    between atoms: _663  and  _666
REMARK  271  A    between atoms: _666  and  _667
REMARK  272  A    between atoms: _667  and  _668
REMARK  273  A    between atoms: _668  and  _669
REMARK  274  A    between atoms: _678  and  _680
REMARK  275  A    between atoms: _680  and  _681
REMARK  276  A    between atoms: _680  and  _683
REMARK  277  A    between atoms: _683  and  _684
REMARK  278  A    between atoms: _684  and  _685
REMARK  279  A    between atoms: _685  and  _686
REMARK  280  A    between atoms: _686  and  _687
REMARK  281  A    between atoms: _691  and  _693
REMARK  282  A    between atoms: _693  and  _694
REMARK  283  A    between atoms: _693  and  _696
REMARK  284  A    between atoms: _696  and  _697
REMARK  285  A    between atoms: _700  and  _702
REMARK  286  A    between atoms: _702  and  _703
REMARK  287  A    between atoms: _702  and  _705
REMARK  288  A    between atoms: _705  and  _706
REMARK                            x       y       z     vdW  Elec       q    Type
REMARK                         _______ _______ _______ _____ _____    ______ ____
ROOT
ATOM      1  O   HOH     1       3.467  17.868  46.836  0.00  0.00    +0.000 OA
ENDROOT
TORSDOF 0
REMARK  Name = ../refined-set-2016/3t6b/3t6b_pocket.pdb
REMARK  288 active torsions:
REMARK  status: ('A' for Active; 'I' for Inactive)
REMARK    1  A    between atoms: _1  and  _3
REMARK    2  A    between atoms: _3  and  _4
REMARK    3  A    between atoms: _6  and  _8
REMARK    4  A    between atoms: _8  and  _9
REMARK    5  A    between atoms: _8  and  _11
REMARK    6  A    between atoms: _11  and  _12
REMARK    7  A    between atoms: _14  and  _16
REMARK    8  A    between atoms: _16  and  _17
REMARK    9  A    between atoms: _16  and  _19
REMARK   10  A    between atoms: _19  and  _20
REMARK   11  A    between atoms: _23  and  _25
REMARK   12  A    between atoms: _25  and  _26
REMARK   13  A    between atoms: _25  and  _28
REMARK   14  A    between atoms: _28  and  _29
REMARK   15  A    between atoms: _31  and  _33
REMARK   16  A    between atoms: _33  and  _34
REMARK   17  A    between atoms: _33  and  _36
REMARK   18  A    between atoms: _36  and  _37
REMARK   19  A    between atoms: _43  and  _45
REMARK   20  A    between atoms: _45  and  _46
REMARK   21  A    between atoms: _45  and  _48
REMARK   22  A    between atoms: _48  and  _49
REMARK   23  A    between atoms: _54  and  _55
REMARK   24  A    between atoms: _57  and  _59
REMARK   25  A    between atoms: _59  and  _60
REMARK   26  A    between atoms: _59  and  _62
REMARK   27  A    between atoms: _62  and  _63
REMARK   28  A    between atoms: _66  and  _68
REMARK   29  A    between atoms: _68  and  _69
REMARK   30  A    between atoms: _68  and  _71
REMARK   31  A    between atoms: _71  and  _72
REMARK   32  A    between atoms: _72  and  _73
REMARK   33  A    between atoms: _76  and  _78
REMARK   34  A    between atoms: _78  and  _79
REMARK   35  A    between atoms: _78  and  _81
REMARK   36  A    between atoms: _81  and  _82
REMARK   37  A    between atoms: _84  and  _86
REMARK   38  A    between atoms: _86  and  _87
REMARK   39  A    between atoms: _86  and  _89
REMARK   40  A    between atoms: _89  and  _90
REMARK   41  A    between atoms: _95  and  _96
REMARK   42  A    between atoms: _98  and  _100
REMARK   43  A    between atoms: _100  and  _101
REMARK   44  A    between atoms: _100  and  _103
REMARK   45  A    between atoms: _103  and  _104
REMARK   46  A    between atoms: _104  and  _105
REMARK   47  A    between atoms: _108  and  _110
REMARK   48  A    between atoms: _110  and  _111
REMARK   49  A    between atoms: _110  and  _113
REMARK   50  A    between atoms: _113  and  _114
REMARK   51  A    between atoms: _120  and  _122
REMARK   52  A    between atoms: _122  and  _123
REMARK   53  A    between atoms: _122  and  _125
REMARK   54  A    between atoms: _125  and  _126
REMARK   55  A    between atoms: _128  and  _130
REMARK   56  A    between atoms: _130  and  _131
REMARK   57  A    between atoms: _133  and  _135
REMARK   58  A    between atoms: _135  and  _136
REMARK   59  A    between atoms: _135  and  _138
REMARK   60  A    between atoms: _138  and  _139
REMARK   61  A    between atoms: _143  and  _144
REMARK   62  A    between atoms: _149  and  _151
REMARK   63  A    between atoms: _151  and  _152
REMARK   64  A    between atoms: _155  and  _157
REMARK   65  A    between atoms: _157  and  _158
REMARK   66  A    between atoms: _160  and  _162
REMARK   67  A    between atoms: _162  and  _163
REMARK   68  A    between atoms: _162  and  _165
REMARK   69  A    between atoms: _165  and  _166
REMARK   70  A    between atoms: _169  and  _171
REMARK   71  A    between atoms: _171  and  _172
REMARK   72  A    between atoms: _171  and  _174
REMARK   73  A    between atoms: _174  and  _175
REMARK   74  A    between atoms: _180  and  _182
REMARK   75  A    between atoms: _182  and  _183
REMARK   76  A    between atoms: _182  and  _185
REMARK   77  A    between atoms: _185  and  _186
REMARK   78  A    between atoms: _190  and  _191
REMARK   79  A    between atoms: _196  and  _198
REMARK   80  A    between atoms: _198  and  _199
REMARK   81  A    between atoms: _198  and  _201
REMARK   82  A    between atoms: _201  and  _202
REMARK   83  A    between atoms: _207  and  _209
REMARK   84  A    between atoms: _209  and  _210
REMARK   85  A    between atoms: _209  and  _212
REMARK   86  A    between atoms: _212  and  _213
REMARK   87  A    between atoms: _218  and  _219
REMARK   88  A    between atoms: _221  and  _223
REMARK   89  A    between atoms: _223  and  _224
REMARK   90  A    between atoms: _223  and  _226
REMARK   91  A    between atoms: _226  and  _227
REMARK   92  A    between atoms: _230  and  _232
REMARK   93  A    between atoms: _232  and  _233
REMARK   94  A    between atoms: _232  and  _235
REMARK   95  A    between atoms: _235  and  _236
REMARK   96  A    between atoms: _236  and  _237
REMARK   97  A    between atoms: _237  and  _238
REMARK   98  A    between atoms: _247  and  _249
REMARK   99  A    between atoms: _249  and  _250
REMARK  100  A    between atoms: _249  and  _252
REMARK  101  A    between atoms: _252  and  _253
REMARK  102  A    between atoms: _253  and  _254
REMARK  103  A    between atoms: _254  and  _255
REMARK  104  A    between atoms: _255  and  _256
REMARK  105  A    between atoms: _260  and  _262
REMARK  106  A    between atoms: _262  and  _263
REMARK  107  A    between atoms: _262  and  _265
REMARK  108  A    between atoms: _265  and  _266
REMARK  109  A    between atoms: _271  and  _273
REMARK  110  A    between atoms: _273  and  _274
REMARK  111  A    between atoms: _273  and  _276
REMARK  112  A    between atoms: _279  and  _281
REMARK  113  A    between atoms: _281  and  _282
REMARK  114  A    between atoms: _281  and  _284
REMARK  115  A    between atoms: _284  and  _285
REMARK  116  A    between atoms: _288  and  _290
REMARK  117  A    between atoms: _290  and  _291
REMARK  118  A    between atoms: _290  and  _293
REMARK  119  A    between atoms: _296  and  _298
REMARK  120  A    between atoms: _298  and  _299
REMARK  121  A    between atoms: _298  and  _301
REMARK  122  A    between atoms: _301  and  _302
REMARK  123  A    between atoms: _305  and  _307
REMARK  124  A    between atoms: _307  and  _308
REMARK  125  A    between atoms: _311  and  _313
REMARK  126  A    between atoms: _313  and  _314
REMARK  127  A    between atoms: _313  and  _316
REMARK  128  A    between atoms: _319  and  _321
REMARK  129  A    between atoms: _321  and  _322
REMARK  130  A    between atoms: _325  and  _327
REMARK  131  A    between atoms: _327  and  _328
REMARK  132  A    between atoms: _331  and  _333
REMARK  133  A    between atoms: _333  and  _334
REMARK  134  A    between atoms: _333  and  _336
REMARK  135  A    between atoms: _336  and  _337
REMARK  136  A    between atoms: _342  and  _343
REMARK  137  A    between atoms: _345  and  _347
REMARK  138  A    between atoms: _347  and  _348
REMARK  139  A    between atoms: _347  and  _350
REMARK  140  A    between atoms: _350  and  _351
REMARK  141  A    between atoms: _351  and  _352
REMARK  142  A    between atoms: _352  and  _353
REMARK  143  A    between atoms: _353  and  _354
REMARK  144  A    between atoms: _358  and  _360
REMARK  145  A    between atoms: _360  and  _361
REMARK  146  A    between atoms: _360  and  _363
REMARK  147  A    between atoms: _363  and  _364
REMARK  148  A    between atoms: _366  and  _368
REMARK  149  A    between atoms: _368  and  _369
REMARK  150  A    between atoms: _368  and  _371
REMARK  151  A    between atoms: _371  and  _372
REMARK  152  A    between atoms: _378  and  _380
REMARK  153  A    between atoms: _380  and  _381
REMARK  154  A    between atoms: _380  and  _383
REMARK  155  A    between atoms: _383  and  _384
REMARK  156  A    between atoms: _387  and  _389
REMARK  157  A    between atoms: _389  and  _390
REMARK  158  A    between atoms: _389  and  _392
REMARK  159  A    between atoms: _395  and  _397
REMARK  160  A    between atoms: _397  and  _398
REMARK  161  A    between atoms: _397  and  _400
REMARK  162  A    between atoms: _400  and  _401
REMARK  163  A    between atoms: _401  and  _402
REMARK  164  A    between atoms: _407  and  _409
REMARK  165  A    between atoms: _409  and  _410
REMARK  166  A    between atoms: _409  and  _412
REMARK  167  A    between atoms: _415  and  _417
REMARK  168  A    between atoms: _417  and  _418
REMARK  169  A    between atoms: _420  and  _422
REMARK  170  A    between atoms: _422  and  _423
REMARK  171  A    between atoms: _422  and  _425
REMARK  172  A    between atoms: _425  and  _426
REMARK  173  A    between atoms: _429  and  _431
REMARK  174  A    between atoms: _431  and  _432
REMARK  175  A    between atoms: _431  and  _434
REMARK  176  A    between atoms: _434  and  _435
REMARK  177  A    between atoms: _440  and  _442
REMARK  178  A    between atoms: _442  and  _443
REMARK  179  A    between atoms: _446  and  _448
REMARK  180  A    between atoms: _448  and  _449
REMARK  181  A    between atoms: _448  and  _451
REMARK  182  A    between atoms: _451  and  _452
REMARK  183  A    between atoms: _457  and  _459
REMARK  184  A    between atoms: _459  and  _460
REMARK  185  A    between atoms: _459  and  _462
REMARK  186  A    between atoms: _462  and  _463
REMARK  187  A    between atoms: _473  and  _475
REMARK  188  A    between atoms: _475  and  _476
REMARK  189  A    between atoms: _475  and  _478
REMARK  190  A    between atoms: _478  and  _479
REMARK  191  A    between atoms: _482  and  _484
REMARK  192  A    between atoms: _484  and  _485
REMARK  193  A    between atoms: _488  and  _490
REMARK  194  A    between atoms: _490  and  _491
REMARK  195  A    between atoms: _490  and  _493
REMARK  196  A    between atoms: _493  and  _494
REMARK  197  A    between atoms: _496  and  _498
REMARK  198  A    between atoms: _498  and  _499
REMARK  199  A    between atoms: _498  and  _501
REMARK  200  A    between atoms: _501  and  _502
REMARK  201  A    between atoms: _502  and  _503
REMARK  202  A    between atoms: _506  and  _508
REMARK  203  A    between atoms: _508  and  _509
REMARK  204  A    between atoms: _508  and  _511
REMARK  205  A    between atoms: _511  and  _512
REMARK  206  A    between atoms: _512  and  _513
REMARK  207  A    between atoms: _516  and  _518
REMARK  208  A    between atoms: _518  and  _519
REMARK  209  A    between atoms: _518  and  _521
REMARK  210  A    between atoms: _521  and  _522
REMARK  211  A    between atoms: _522  and  _523
REMARK  212  A    between atoms: _523  and  _524
REMARK  213  A    between atoms: _533  and  _535
REMARK  214  A    between atoms: _535  and  _536
REMARK  215  A    between atoms: _539  and  _541
REMARK  216  A    between atoms: _541  and  _542
REMARK  217  A    between atoms: _541  and  _544
REMARK  218  A    between atoms: _544  and  _545
REMARK  219  A    between atoms: _545  and  _546
REMARK  220  A    between atoms: _549  and  _551
REMARK  221  A    between atoms: _551  and  _552
REMARK  222  A    between atoms: _554  and  _556
REMARK  223  A    between atoms: _556  and  _557
REMARK  224  A    between atoms: _556  and  _559
REMARK  225  A    between atoms: _559  and  _560
REMARK  226  A    between atoms: _565  and  _567
REMARK  227  A    between atoms: _567  and  _568
REMARK  228  A    between atoms: _567  and  _570
REMARK  229  A    between atoms: _570  and  _571
REMARK  230  A    between atoms: _576  and  _578
REMARK  231  A    between atoms: _578  and  _579
REMARK  232  A    between atoms: _578  and  _581
REMARK  233  A    between atoms: _581  and  _582
REMARK  234  A    between atoms: _582  and  _583
REMARK  235  A    between atoms: _585  and  _587
REMARK  236  A    between atoms: _587  and  _588
REMARK  237  A    between atoms: _587  and  _590
REMARK  238  A    between atoms: _590  and  _591
REMARK  239  A    between atoms: _591  and  _592
REMARK  240  A    between atoms: _597  and  _599
REMARK  241  A    between atoms: _599  and  _600
REMARK  242  A    between atoms: _603  and  _605
REMARK  243  A    between atoms: _605  and  _606
REMARK  244  A    between atoms: _605  and  _608
REMARK  245  A    between atoms: _608  and  _609
REMARK  246  A    between atoms: _614  and  _616
REMARK  247  A    between atoms: _616  and  _617
REMARK  248  A    between atoms: _616  and  _619
REMARK  249  A    between atoms: _619  and  _620
REMARK  250  A    between atoms: _620  and  _621
REMARK  251  A    between atoms: _623  and  _625
REMARK  252  A    between atoms: _625  and  _626
REMARK  253  A    between atoms: _625  and  _628
REMARK  254  A    between atoms: _628  and  _629
REMARK  255  A    between atoms: _629  and  _630
REMARK  256  A    between atoms: _630  and  _631
REMARK  257  A    between atoms: _640  and  _642
REMARK  258  A    between atoms: _642  and  _643
REMARK  259  A    between atoms: _642  and  _645
REMARK  260  A    between atoms: _645  and  _646
REMARK  261  A    between atoms: _646  and  _647
REMARK  262  A    between atoms: _647  and  _648
REMARK  263  A    between atoms: _648  and  _649
REMARK  264  A    between atoms: _653  and  _655
REMARK  265  A    between atoms: _655  and  _656
REMARK  266  A    between atoms: _655  and  _658
REMARK  267  A    between atoms: _658  and  _659
REMARK  268  A    between atoms: _661  and  _663
REMARK  269  A    between atoms: _663  and  _664
REMARK  270  A    between atoms: _663  and  _666
REMARK  271  A    between atoms: _666  and  _667
REMARK  272  A    between atoms: _667  and  _668
REMARK  273  A    between atoms: _668  and  _669
REMARK  274  A    between atoms: _678  and  _680
REMARK  275  A    between atoms: _680  and  _681
REMARK  276  A    between atoms: _680  and  _683
REMARK  277  A    between atoms: _683  and  _684
REMARK  278  A    between atoms: _684  and  _685
REMARK  279  A    between atoms: _685  and  _686
REMARK  280  A    between atoms: _686  and  _687
REMARK  281  A    between atoms: _691  and  _693
REMARK  282  A    between atoms: _693  and  _694
REMARK  283  A    between atoms: _693  and  _696
REMARK  284  A    between atoms: _696  and  _697
REMARK  285  A    between atoms: _700  and  _702
REMARK  286  A    between atoms: _702  and  _703
REMARK  287  A    between atoms: _702  and  _705
REMARK  288  A    between atoms: _705  and  _706
REMARK                            x       y       z     vdW  Elec       q    Type
REMARK                         _______ _______ _______ _____ _____    ______ ____
ROOT
ATOM      1  O   HOH     1      12.395  13.561  55.074  0.00  0.00    +0.000 OA
ENDROOT
TORSDOF 0
REMARK  Name = ../refined-set-2016/3t6b/3t6b_pocket.pdb
REMARK  288 active torsions:
REMARK  status: ('A' for Active; 'I' for Inactive)
REMARK    1  A    between atoms: _1  and  _3
REMARK    2  A    between atoms: _3  and  _4
REMARK    3  A    between atoms: _6  and  _8
REMARK    4  A    between atoms: _8  and  _9
REMARK    5  A    between atoms: _8  and  _11
REMARK    6  A    between atoms: _11  and  _12
REMARK    7  A    between atoms: _14  and  _16
REMARK    8  A    between atoms: _16  and  _17
REMARK    9  A    between atoms: _16  and  _19
REMARK   10  A    between atoms: _19  and  _20
REMARK   11  A    between atoms: _23  and  _25
REMARK   12  A    between atoms: _25  and  _26
REMARK   13  A    between atoms: _25  and  _28
REMARK   14  A    between atoms: _28  and  _29
REMARK   15  A    between atoms: _31  and  _33
REMARK   16  A    between atoms: _33  and  _34
REMARK   17  A    between atoms: _33  and  _36
REMARK   18  A    between atoms: _36  and  _37
REMARK   19  A    between atoms: _43  and  _45
REMARK   20  A    between atoms: _45  and  _46
REMARK   21  A    between atoms: _45  and  _48
REMARK   22  A    between atoms: _48  and  _49
REMARK   23  A    between atoms: _54  and  _55
REMARK   24  A    between atoms: _57  and  _59
REMARK   25  A    between atoms: _59  and  _60
REMARK   26  A    between atoms: _59  and  _62
REMARK   27  A    between atoms: _62  and  _63
REMARK   28  A    between atoms: _66  and  _68
REMARK   29  A    between atoms: _68  and  _69
REMARK   30  A    between atoms: _68  and  _71
REMARK   31  A    between atoms: _71  and  _72
REMARK   32  A    between atoms: _72  and  _73
REMARK   33  A    between atoms: _76  and  _78
REMARK   34  A    between atoms: _78  and  _79
REMARK   35  A    between atoms: _78  and  _81
REMARK   36  A    between atoms: _81  and  _82
REMARK   37  A    between atoms: _84  and  _86
REMARK   38  A    between atoms: _86  and  _87
REMARK   39  A    between atoms: _86  and  _89
REMARK   40  A    between atoms: _89  and  _90
REMARK   41  A    between atoms: _95  and  _96
REMARK   42  A    between atoms: _98  and  _100
REMARK   43  A    between atoms: _100  and  _101
REMARK   44  A    between atoms: _100  and  _103
REMARK   45  A    between atoms: _103  and  _104
REMARK   46  A    between atoms: _104  and  _105
REMARK   47  A    between atoms: _108  and  _110
REMARK   48  A    between atoms: _110  and  _111
REMARK   49  A    between atoms: _110  and  _113
REMARK   50  A    between atoms: _113  and  _114
REMARK   51  A    between atoms: _120  and  _122
REMARK   52  A    between atoms: _122  and  _123
REMARK   53  A    between atoms: _122  and  _125
REMARK   54  A    between atoms: _125  and  _126
REMARK   55  A    between atoms: _128  and  _130
REMARK   56  A    between atoms: _130  and  _131
REMARK   57  A    between atoms: _133  and  _135
REMARK   58  A    between atoms: _135  and  _136
REMARK   59  A    between atoms: _135  and  _138
REMARK   60  A    between atoms: _138  and  _139
REMARK   61  A    between atoms: _143  and  _144
REMARK   62  A    between atoms: _149  and  _151
REMARK   63  A    between atoms: _151  and  _152
REMARK   64  A    between atoms: _155  and  _157
REMARK   65  A    between atoms: _157  and  _158
REMARK   66  A    between atoms: _160  and  _162
REMARK   67  A    between atoms: _162  and  _163
REMARK   68  A    between atoms: _162  and  _165
REMARK   69  A    between atoms: _165  and  _166
REMARK   70  A    between atoms: _169  and  _171
REMARK   71  A    between atoms: _171  and  _172
REMARK   72  A    between atoms: _171  and  _174
REMARK   73  A    between atoms: _174  and  _175
REMARK   74  A    between atoms: _180  and  _182
REMARK   75  A    between atoms: _182  and  _183
REMARK   76  A    between atoms: _182  and  _185
REMARK   77  A    between atoms: _185  and  _186
REMARK   78  A    between atoms: _190  and  _191
REMARK   79  A    between atoms: _196  and  _198
REMARK   80  A    between atoms: _198  and  _199
REMARK   81  A    between atoms: _198  and  _201
REMARK   82  A    between atoms: _201  and  _202
REMARK   83  A    between atoms: _207  and  _209
REMARK   84  A    between atoms: _209  and  _210
REMARK   85  A    between atoms: _209  and  _212
REMARK   86  A    between atoms: _212  and  _213
REMARK   87  A    between atoms: _218  and  _219
REMARK   88  A    between atoms: _221  and  _223
REMARK   89  A    between atoms: _223  and  _224
REMARK   90  A    between atoms: _223  and  _226
REMARK   91  A    between atoms: _226  and  _227
REMARK   92  A    between atoms: _230  and  _232
REMARK   93  A    between atoms: _232  and  _233
REMARK   94  A    between atoms: _232  and  _235
REMARK   95  A    between atoms: _235  and  _236
REMARK   96  A    between atoms: _236  and  _237
REMARK   97  A    between atoms: _237  and  _238
REMARK   98  A    between atoms: _247  and  _249
REMARK   99  A    between atoms: _249  and  _250
REMARK  100  A    between atoms: _249  and  _252
REMARK  101  A    between atoms: _252  and  _253
REMARK  102  A    between atoms: _253  and  _254
REMARK  103  A    between atoms: _254  and  _255
REMARK  104  A    between atoms: _255  and  _256
REMARK  105  A    between atoms: _260  and  _262
REMARK  106  A    between atoms: _262  and  _263
REMARK  107  A    between atoms: _262  and  _265
REMARK  108  A    between atoms: _265  and  _266
REMARK  109  A    between atoms: _271  and  _273
REMARK  110  A    between atoms: _273  and  _274
REMARK  111  A    between atoms: _273  and  _276
REMARK  112  A    between atoms: _279  and  _281
REMARK  113  A    between atoms: _281  and  _282
REMARK  114  A    between atoms: _281  and  _284
REMARK  115  A    between atoms: _284  and  _285
REMARK  116  A    between atoms: _288  and  _290
REMARK  117  A    between atoms: _290  and  _291
REMARK  118  A    between atoms: _290  and  _293
REMARK  119  A    between atoms: _296  and  _298
REMARK  120  A    between atoms: _298  and  _299
REMARK  121  A    between atoms: _298  and  _301
REMARK  122  A    between atoms: _301  and  _302
REMARK  123  A    between atoms: _305  and  _307
REMARK  124  A    between atoms: _307  and  _308
REMARK  125  A    between atoms: _311  and  _313
REMARK  126  A    between atoms: _313  and  _314
REMARK  127  A    between atoms: _313  and  _316
REMARK  128  A    between atoms: _319  and  _321
REMARK  129  A    between atoms: _321  and  _322
REMARK  130  A    between atoms: _325  and  _327
REMARK  131  A    between atoms: _327  and  _328
REMARK  132  A    between atoms: _331  and  _333
REMARK  133  A    between atoms: _333  and  _334
REMARK  134  A    between atoms: _333  and  _336
REMARK  135  A    between atoms: _336  and  _337
REMARK  136  A    between atoms: _342  and  _343
REMARK  137  A    between atoms: _345  and  _347
REMARK  138  A    between atoms: _347  and  _348
REMARK  139  A    between atoms: _347  and  _350
REMARK  140  A    between atoms: _350  and  _351
REMARK  141  A    between atoms: _351  and  _352
REMARK  142  A    between atoms: _352  and  _353
REMARK  143  A    between atoms: _353  and  _354
REMARK  144  A    between atoms: _358  and  _360
REMARK  145  A    between atoms: _360  and  _361
REMARK  146  A    between atoms: _360  and  _363
REMARK  147  A    between atoms: _363  and  _364
REMARK  148  A    between atoms: _366  and  _368
REMARK  149  A    between atoms: _368  and  _369
REMARK  150  A    between atoms: _368  and  _371
REMARK  151  A    between atoms: _371  and  _372
REMARK  152  A    between atoms: _378  and  _380
REMARK  153  A    between atoms: _380  and  _381
REMARK  154  A    between atoms: _380  and  _383
REMARK  155  A    between atoms: _383  and  _384
REMARK  156  A    between atoms: _387  and  _389
REMARK  157  A    between atoms: _389  and  _390
REMARK  158  A    between atoms: _389  and  _392
REMARK  159  A    between atoms: _395  and  _397
REMARK  160  A    between atoms: _397  and  _398
REMARK  161  A    between atoms: _397  and  _400
REMARK  162  A    between atoms: _400  and  _401
REMARK  163  A    between atoms: _401  and  _402
REMARK  164  A    between atoms: _407  and  _409
REMARK  165  A    between atoms: _409  and  _410
REMARK  166  A    between atoms: _409  and  _412
REMARK  167  A    between atoms: _415  and  _417
REMARK  168  A    between atoms: _417  and  _418
REMARK  169  A    between atoms: _420  and  _422
REMARK  170  A    between atoms: _422  and  _423
REMARK  171  A    between atoms: _422  and  _425
REMARK  172  A    between atoms: _425  and  _426
REMARK  173  A    between atoms: _429  and  _431
REMARK  174  A    between atoms: _431  and  _432
REMARK  175  A    between atoms: _431  and  _434
REMARK  176  A    between atoms: _434  and  _435
REMARK  177  A    between atoms: _440  and  _442
REMARK  178  A    between atoms: _442  and  _443
REMARK  179  A    between atoms: _446  and  _448
REMARK  180  A    between atoms: _448  and  _449
REMARK  181  A    between atoms: _448  and  _451
REMARK  182  A    between atoms: _451  and  _452
REMARK  183  A    between atoms: _457  and  _459
REMARK  184  A    between atoms: _459  and  _460
REMARK  185  A    between atoms: _459  and  _462
REMARK  186  A    between atoms: _462  and  _463
REMARK  187  A    between atoms: _473  and  _475
REMARK  188  A    between atoms: _475  and  _476
REMARK  189  A    between atoms: _475  and  _478
REMARK  190  A    between atoms: _478  and  _479
REMARK  191  A    between atoms: _482  and  _484
REMARK  192  A    between atoms: _484  and  _485
REMARK  193  A    between atoms: _488  and  _490
REMARK  194  A    between atoms: _490  and  _491
REMARK  195  A    between atoms: _490  and  _493
REMARK  196  A    between atoms: _493  and  _494
REMARK  197  A    between atoms: _496  and  _498
REMARK  198  A    between atoms: _498  and  _499
REMARK  199  A    between atoms: _498  and  _501
REMARK  200  A    between atoms: _501  and  _502
REMARK  201  A    between atoms: _502  and  _503
REMARK  202  A    between atoms: _506  and  _508
REMARK  203  A    between atoms: _508  and  _509
REMARK  204  A    between atoms: _508  and  _511
REMARK  205  A    between atoms: _511  and  _512
REMARK  206  A    between atoms: _512  and  _513
REMARK  207  A    between atoms: _516  and  _518
REMARK  208  A    between atoms: _518  and  _519
REMARK  209  A    between atoms: _518  and  _521
REMARK  210  A    between atoms: _521  and  _522
REMARK  211  A    between atoms: _522  and  _523
REMARK  212  A    between atoms: _523  and  _524
REMARK  213  A    between atoms: _533  and  _535
REMARK  214  A    between atoms: _535  and  _536
REMARK  215  A    between atoms: _539  and  _541
REMARK  216  A    between atoms: _541  and  _542
REMARK  217  A    between atoms: _541  and  _544
REMARK  218  A    between atoms: _544  and  _545
REMARK  219  A    between atoms: _545  and  _546
REMARK  220  A    between atoms: _549  and  _551
REMARK  221  A    between atoms: _551  and  _552
REMARK  222  A    between atoms: _554  and  _556
REMARK  223  A    between atoms: _556  and  _557
REMARK  224  A    between atoms: _556  and  _559
REMARK  225  A    between atoms: _559  and  _560
REMARK  226  A    between atoms: _565  and  _567
REMARK  227  A    between atoms: _567  and  _568
REMARK  228  A    between atoms: _567  and  _570
REMARK  229  A    between atoms: _570  and  _571
REMARK  230  A    between atoms: _576  and  _578
REMARK  231  A    between atoms: _578  and  _579
REMARK  232  A    between atoms: _578  and  _581
REMARK  233  A    between atoms: _581  and  _582
REMARK  234  A    between atoms: _582  and  _583
REMARK  235  A    between atoms: _585  and  _587
REMARK  236  A    between atoms: _587  and  _588
REMARK  237  A    between atoms: _587  and  _590
REMARK  238  A    between atoms: _590  and  _591
REMARK  239  A    between atoms: _591  and  _592
REMARK  240  A    between atoms: _597  and  _599
REMARK  241  A    between atoms: _599  and  _600
REMARK  242  A    between atoms: _603  and  _605
REMARK  243  A    between atoms: _605  and  _606
REMARK  244  A    between atoms: _605  and  _608
REMARK  245  A    between atoms: _608  and  _609
REMARK  246  A    between atoms: _614  and  _616
REMARK  247  A    between atoms: _616  and  _617
REMARK  248  A    between atoms: _616  and  _619
REMARK  249  A    between atoms: _619  and  _620
REMARK  250  A    between atoms: _620  and  _621
REMARK  251  A    between atoms: _623  and  _625
REMARK  252  A    between atoms: _625  and  _626
REMARK  253  A    between atoms: _625  and  _628
REMARK  254  A    between atoms: _628  and  _629
REMARK  255  A    between atoms: _629  and  _630
REMARK  256  A    between atoms: _630  and  _631
REMARK  257  A    between atoms: _640  and  _642
REMARK  258  A    between atoms: _642  and  _643
REMARK  259  A    between atoms: _642  and  _645
REMARK  260  A    between atoms: _645  and  _646
REMARK  261  A    between atoms: _646  and  _647
REMARK  262  A    between atoms: _647  and  _648
REMARK  263  A    between atoms: _648  and  _649
REMARK  264  A    between atoms: _653  and  _655
REMARK  265  A    between atoms: _655  and  _656
REMARK  266  A    between atoms: _655  and  _658
REMARK  267  A    between atoms: _658  and  _659
REMARK  268  A    between atoms: _661  and  _663
REMARK  269  A    between atoms: _663  and  _664
REMARK  270  A    between atoms: _663  and  _666
REMARK  271  A    between atoms: _666  and  _667
REMARK  272  A    between atoms: _667  and  _668
REMARK  273  A    between atoms: _668  and  _669
REMARK  274  A    between atoms: _678  and  _680
REMARK  275  A    between atoms: _680  and  _681
REMARK  276  A    between atoms: _680  and  _683
REMARK  277  A    between atoms: _683  and  _684
REMARK  278  A    between atoms: _684  and  _685
REMARK  279  A    between atoms: _685  and  _686
REMARK  280  A    between atoms: _686  and  _687
REMARK  281  A    between atoms: _691  and  _693
REMARK  282  A    between atoms: _693  and  _694
REMARK  283  A    between atoms: _693  and  _696
REMARK  284  A    between atoms: _696  and  _697
REMARK  285  A    between atoms: _700  and  _702
REMARK  286  A    between atoms: _702  and  _703
REMARK  287  A    between atoms: _702  and  _705
REMARK  288  A    between atoms: _705  and  _706
REMARK                            x       y       z     vdW  Elec       q    Type
REMARK                         _______ _______ _______ _____ _____    ______ ____
ROOT
ATOM      1  O   HOH     1      19.333  31.085  49.188  0.00  0.00    +0.000 OA
ENDROOT
TORSDOF 0
REMARK  Name = ../refined-set-2016/3t6b/3t6b_pocket.pdb
REMARK  288 active torsions:
REMARK  status: ('A' for Active; 'I' for Inactive)
REMARK    1  A    between atoms: _1  and  _3
REMARK    2  A    between atoms: _3  and  _4
REMARK    3  A    between atoms: _6  and  _8
REMARK    4  A    between atoms: _8  and  _9
REMARK    5  A    between atoms: _8  and  _11
REMARK    6  A    between atoms: _11  and  _12
REMARK    7  A    between atoms: _14  and  _16
REMARK    8  A    between atoms: _16  and  _17
REMARK    9  A    between atoms: _16  and  _19
REMARK   10  A    between atoms: _19  and  _20
REMARK   11  A    between atoms: _23  and  _25
REMARK   12  A    between atoms: _25  and  _26
REMARK   13  A    between atoms: _25  and  _28
REMARK   14  A    between atoms: _28  and  _29
REMARK   15  A    between atoms: _31  and  _33
REMARK   16  A    between atoms: _33  and  _34
REMARK   17  A    between atoms: _33  and  _36
REMARK   18  A    between atoms: _36  and  _37
REMARK   19  A    between atoms: _43  and  _45
REMARK   20  A    between atoms: _45  and  _46
REMARK   21  A    between atoms: _45  and  _48
REMARK   22  A    between atoms: _48  and  _49
REMARK   23  A    between atoms: _54  and  _55
REMARK   24  A    between atoms: _57  and  _59
REMARK   25  A    between atoms: _59  and  _60
REMARK   26  A    between atoms: _59  and  _62
REMARK   27  A    between atoms: _62  and  _63
REMARK   28  A    between atoms: _66  and  _68
REMARK   29  A    between atoms: _68  and  _69
REMARK   30  A    between atoms: _68  and  _71
REMARK   31  A    between atoms: _71  and  _72
REMARK   32  A    between atoms: _72  and  _73
REMARK   33  A    between atoms: _76  and  _78
REMARK   34  A    between atoms: _78  and  _79
REMARK   35  A    between atoms: _78  and  _81
REMARK   36  A    between atoms: _81  and  _82
REMARK   37  A    between atoms: _84  and  _86
REMARK   38  A    between atoms: _86  and  _87
REMARK   39  A    between atoms: _86  and  _89
REMARK   40  A    between atoms: _89  and  _90
REMARK   41  A    between atoms: _95  and  _96
REMARK   42  A    between atoms: _98  and  _100
REMARK   43  A    between atoms: _100  and  _101
REMARK   44  A    between atoms: _100  and  _103
REMARK   45  A    between atoms: _103  and  _104
REMARK   46  A    between atoms: _104  and  _105
REMARK   47  A    between atoms: _108  and  _110
REMARK   48  A    between atoms: _110  and  _111
REMARK   49  A    between atoms: _110  and  _113
REMARK   50  A    between atoms: _113  and  _114
REMARK   51  A    between atoms: _120  and  _122
REMARK   52  A    between atoms: _122  and  _123
REMARK   53  A    between atoms: _122  and  _125
REMARK   54  A    between atoms: _125  and  _126
REMARK   55  A    between atoms: _128  and  _130
REMARK   56  A    between atoms: _130  and  _131
REMARK   57  A    between atoms: _133  and  _135
REMARK   58  A    between atoms: _135  and  _136
REMARK   59  A    between atoms: _135  and  _138
REMARK   60  A    between atoms: _138  and  _139
REMARK   61  A    between atoms: _143  and  _144
REMARK   62  A    between atoms: _149  and  _151
REMARK   63  A    between atoms: _151  and  _152
REMARK   64  A    between atoms: _155  and  _157
REMARK   65  A    between atoms: _157  and  _158
REMARK   66  A    between atoms: _160  and  _162
REMARK   67  A    between atoms: _162  and  _163
REMARK   68  A    between atoms: _162  and  _165
REMARK   69  A    between atoms: _165  and  _166
REMARK   70  A    between atoms: _169  and  _171
REMARK   71  A    between atoms: _171  and  _172
REMARK   72  A    between atoms: _171  and  _174
REMARK   73  A    between atoms: _174  and  _175
REMARK   74  A    between atoms: _180  and  _182
REMARK   75  A    between atoms: _182  and  _183
REMARK   76  A    between atoms: _182  and  _185
REMARK   77  A    between atoms: _185  and  _186
REMARK   78  A    between atoms: _190  and  _191
REMARK   79  A    between atoms: _196  and  _198
REMARK   80  A    between atoms: _198  and  _199
REMARK   81  A    between atoms: _198  and  _201
REMARK   82  A    between atoms: _201  and  _202
REMARK   83  A    between atoms: _207  and  _209
REMARK   84  A    between atoms: _209  and  _210
REMARK   85  A    between atoms: _209  and  _212
REMARK   86  A    between atoms: _212  and  _213
REMARK   87  A    between atoms: _218  and  _219
REMARK   88  A    between atoms: _221  and  _223
REMARK   89  A    between atoms: _223  and  _224
REMARK   90  A    between atoms: _223  and  _226
REMARK   91  A    between atoms: _226  and  _227
REMARK   92  A    between atoms: _230  and  _232
REMARK   93  A    between atoms: _232  and  _233
REMARK   94  A    between atoms: _232  and  _235
REMARK   95  A    between atoms: _235  and  _236
REMARK   96  A    between atoms: _236  and  _237
REMARK   97  A    between atoms: _237  and  _238
REMARK   98  A    between atoms: _247  and  _249
REMARK   99  A    between atoms: _249  and  _250
REMARK  100  A    between atoms: _249  and  _252
REMARK  101  A    between atoms: _252  and  _253
REMARK  102  A    between atoms: _253  and  _254
REMARK  103  A    between atoms: _254  and  _255
REMARK  104  A    between atoms: _255  and  _256
REMARK  105  A    between atoms: _260  and  _262
REMARK  106  A    between atoms: _262  and  _263
REMARK  107  A    between atoms: _262  and  _265
REMARK  108  A    between atoms: _265  and  _266
REMARK  109  A    between atoms: _271  and  _273
REMARK  110  A    between atoms: _273  and  _274
REMARK  111  A    between atoms: _273  and  _276
REMARK  112  A    between atoms: _279  and  _281
REMARK  113  A    between atoms: _281  and  _282
REMARK  114  A    between atoms: _281  and  _284
REMARK  115  A    between atoms: _284  and  _285
REMARK  116  A    between atoms: _288  and  _290
REMARK  117  A    between atoms: _290  and  _291
REMARK  118  A    between atoms: _290  and  _293
REMARK  119  A    between atoms: _296  and  _298
REMARK  120  A    between atoms: _298  and  _299
REMARK  121  A    between atoms: _298  and  _301
REMARK  122  A    between atoms: _301  and  _302
REMARK  123  A    between atoms: _305  and  _307
REMARK  124  A    between atoms: _307  and  _308
REMARK  125  A    between atoms: _311  and  _313
REMARK  126  A    between atoms: _313  and  _314
REMARK  127  A    between atoms: _313  and  _316
REMARK  128  A    between atoms: _319  and  _321
REMARK  129  A    between atoms: _321  and  _322
REMARK  130  A    between atoms: _325  and  _327
REMARK  131  A    between atoms: _327  and  _328
REMARK  132  A    between atoms: _331  and  _333
REMARK  133  A    between atoms: _333  and  _334
REMARK  134  A    between atoms: _333  and  _336
REMARK  135  A    between atoms: _336  and  _337
REMARK  136  A    between atoms: _342  and  _343
REMARK  137  A    between atoms: _345  and  _347
REMARK  138  A    between atoms: _347  and  _348
REMARK  139  A    between atoms: _347  and  _350
REMARK  140  A    between atoms: _350  and  _351
REMARK  141  A    between atoms: _351  and  _352
REMARK  142  A    between atoms: _352  and  _353
REMARK  143  A    between atoms: _353  and  _354
REMARK  144  A    between atoms: _358  and  _360
REMARK  145  A    between atoms: _360  and  _361
REMARK  146  A    between atoms: _360  and  _363
REMARK  147  A    between atoms: _363  and  _364
REMARK  148  A    between atoms: _366  and  _368
REMARK  149  A    between atoms: _368  and  _369
REMARK  150  A    between atoms: _368  and  _371
REMARK  151  A    between atoms: _371  and  _372
REMARK  152  A    between atoms: _378  and  _380
REMARK  153  A    between atoms: _380  and  _381
REMARK  154  A    between atoms: _380  and  _383
REMARK  155  A    between atoms: _383  and  _384
REMARK  156  A    between atoms: _387  and  _389
REMARK  157  A    between atoms: _389  and  _390
REMARK  158  A    between atoms: _389  and  _392
REMARK  159  A    between atoms: _395  and  _397
REMARK  160  A    between atoms: _397  and  _398
REMARK  161  A    between atoms: _397  and  _400
REMARK  162  A    between atoms: _400  and  _401
REMARK  163  A    between atoms: _401  and  _402
REMARK  164  A    between atoms: _407  and  _409
REMARK  165  A    between atoms: _409  and  _410
REMARK  166  A    between atoms: _409  and  _412
REMARK  167  A    between atoms: _415  and  _417
REMARK  168  A    between atoms: _417  and  _418
REMARK  169  A    between atoms: _420  and  _422
REMARK  170  A    between atoms: _422  and  _423
REMARK  171  A    between atoms: _422  and  _425
REMARK  172  A    between atoms: _425  and  _426
REMARK  173  A    between atoms: _429  and  _431
REMARK  174  A    between atoms: _431  and  _432
REMARK  175  A    between atoms: _431  and  _434
REMARK  176  A    between atoms: _434  and  _435
REMARK  177  A    between atoms: _440  and  _442
REMARK  178  A    between atoms: _442  and  _443
REMARK  179  A    between atoms: _446  and  _448
REMARK  180  A    between atoms: _448  and  _449
REMARK  181  A    between atoms: _448  and  _451
REMARK  182  A    between atoms: _451  and  _452
REMARK  183  A    between atoms: _457  and  _459
REMARK  184  A    between atoms: _459  and  _460
REMARK  185  A    between atoms: _459  and  _462
REMARK  186  A    between atoms: _462  and  _463
REMARK  187  A    between atoms: _473  and  _475
REMARK  188  A    between atoms: _475  and  _476
REMARK  189  A    between atoms: _475  and  _478
REMARK  190  A    between atoms: _478  and  _479
REMARK  191  A    between atoms: _482  and  _484
REMARK  192  A    between atoms: _484  and  _485
REMARK  193  A    between atoms: _488  and  _490
REMARK  194  A    between atoms: _490  and  _491
REMARK  195  A    between atoms: _490  and  _493
REMARK  196  A    between atoms: _493  and  _494
REMARK  197  A    between atoms: _496  and  _498
REMARK  198  A    between atoms: _498  and  _499
REMARK  199  A    between atoms: _498  and  _501
REMARK  200  A    between atoms: _501  and  _502
REMARK  201  A    between atoms: _502  and  _503
REMARK  202  A    between atoms: _506  and  _508
REMARK  203  A    between atoms: _508  and  _509
REMARK  204  A    between atoms: _508  and  _511
REMARK  205  A    between atoms: _511  and  _512
REMARK  206  A    between atoms: _512  and  _513
REMARK  207  A    between atoms: _516  and  _518
REMARK  208  A    between atoms: _518  and  _519
REMARK  209  A    between atoms: _518  and  _521
REMARK  210  A    between atoms: _521  and  _522
REMARK  211  A    between atoms: _522  and  _523
REMARK  212  A    between atoms: _523  and  _524
REMARK  213  A    between atoms: _533  and  _535
REMARK  214  A    between atoms: _535  and  _536
REMARK  215  A    between atoms: _539  and  _541
REMARK  216  A    between atoms: _541  and  _542
REMARK  217  A    between atoms: _541  and  _544
REMARK  218  A    between atoms: _544  and  _545
REMARK  219  A    between atoms: _545  and  _546
REMARK  220  A    between atoms: _549  and  _551
REMARK  221  A    between atoms: _551  and  _552
REMARK  222  A    between atoms: _554  and  _556
REMARK  223  A    between atoms: _556  and  _557
REMARK  224  A    between atoms: _556  and  _559
REMARK  225  A    between atoms: _559  and  _560
REMARK  226  A    between atoms: _565  and  _567
REMARK  227  A    between atoms: _567  and  _568
REMARK  228  A    between atoms: _567  and  _570
REMARK  229  A    between atoms: _570  and  _571
REMARK  230  A    between atoms: _576  and  _578
REMARK  231  A    between atoms: _578  and  _579
REMARK  232  A    between atoms: _578  and  _581
REMARK  233  A    between atoms: _581  and  _582
REMARK  234  A    between atoms: _582  and  _583
REMARK  235  A    between atoms: _585  and  _587
REMARK  236  A    between atoms: _587  and  _588
REMARK  237  A    between atoms: _587  and  _590
REMARK  238  A    between atoms: _590  and  _591
REMARK  239  A    between atoms: _591  and  _592
REMARK  240  A    between atoms: _597  and  _599
REMARK  241  A    between atoms: _599  and  _600
REMARK  242  A    between atoms: _603  and  _605
REMARK  243  A    between atoms: _605  and  _606
REMARK  244  A    between atoms: _605  and  _608
REMARK  245  A    between atoms: _608  and  _609
REMARK  246  A    between atoms: _614  and  _616
REMARK  247  A    between atoms: _616  and  _617
REMARK  248  A    between atoms: _616  and  _619
REMARK  249  A    between atoms: _619  and  _620
REMARK  250  A    between atoms: _620  and  _621
REMARK  251  A    between atoms: _623  and  _625
REMARK  252  A    between atoms: _625  and  _626
REMARK  253  A    between atoms: _625  and  _628
REMARK  254  A    between atoms: _628  and  _629
REMARK  255  A    between atoms: _629  and  _630
REMARK  256  A    between atoms: _630  and  _631
REMARK  257  A    between atoms: _640  and  _642
REMARK  258  A    between atoms: _642  and  _643
REMARK  259  A    between atoms: _642  and  _645
REMARK  260  A    between atoms: _645  and  _646
REMARK  261  A    between atoms: _646  and  _647
REMARK  262  A    between atoms: _647  and  _648
REMARK  263  A    between atoms: _648  and  _649
REMARK  264  A    between atoms: _653  and  _655
REMARK  265  A    between atoms: _655  and  _656
REMARK  266  A    between atoms: _655  and  _658
REMARK  267  A    between atoms: _658  and  _659
REMARK  268  A    between atoms: _661  and  _663
REMARK  269  A    between atoms: _663  and  _664
REMARK  270  A    between atoms: _663  and  _666
REMARK  271  A    between atoms: _666  and  _667
REMARK  272  A    between atoms: _667  and  _668
REMARK  273  A    between atoms: _668  and  _669
REMARK  274  A    between atoms: _678  and  _680
REMARK  275  A    between atoms: _680  and  _681
REMARK  276  A    between atoms: _680  and  _683
REMARK  277  A    between atoms: _683  and  _684
REMARK  278  A    between atoms: _684  and  _685
REMARK  279  A    between atoms: _685  and  _686
REMARK  280  A    between atoms: _686  and  _687
REMARK  281  A    between atoms: _691  and  _693
REMARK  282  A    between atoms: _693  and  _694
REMARK  283  A    between atoms: _693  and  _696
REMARK  284  A    between atoms: _696  and  _697
REMARK  285  A    between atoms: _700  and  _702
REMARK  286  A    between atoms: _702  and  _703
REMARK  287  A    between atoms: _702  and  _705
REMARK  288  A    between atoms: _705  and  _706
REMARK                            x       y       z     vdW  Elec       q    Type
REMARK                         _______ _______ _______ _____ _____    ______ ____
ROOT
ATOM      1  O   HOH     1       4.337  21.398  40.359  0.00  0.00    +0.000 OA
ENDROOT
TORSDOF 0
REMARK  Name = ../refined-set-2016/3t6b/3t6b_pocket.pdb
REMARK  288 active torsions:
REMARK  status: ('A' for Active; 'I' for Inactive)
REMARK    1  A    between atoms: _1  and  _3
REMARK    2  A    between atoms: _3  and  _4
REMARK    3  A    between atoms: _6  and  _8
REMARK    4  A    between atoms: _8  and  _9
REMARK    5  A    between atoms: _8  and  _11
REMARK    6  A    between atoms: _11  and  _12
REMARK    7  A    between atoms: _14  and  _16
REMARK    8  A    between atoms: _16  and  _17
REMARK    9  A    between atoms: _16  and  _19
REMARK   10  A    between atoms: _19  and  _20
REMARK   11  A    between atoms: _23  and  _25
REMARK   12  A    between atoms: _25  and  _26
REMARK   13  A    between atoms: _25  and  _28
REMARK   14  A    between atoms: _28  and  _29
REMARK   15  A    between atoms: _31  and  _33
REMARK   16  A    between atoms: _33  and  _34
REMARK   17  A    between atoms: _33  and  _36
REMARK   18  A    between atoms: _36  and  _37
REMARK   19  A    between atoms: _43  and  _45
REMARK   20  A    between atoms: _45  and  _46
REMARK   21  A    between atoms: _45  and  _48
REMARK   22  A    between atoms: _48  and  _49
REMARK   23  A    between atoms: _54  and  _55
REMARK   24  A    between atoms: _57  and  _59
REMARK   25  A    between atoms: _59  and  _60
REMARK   26  A    between atoms: _59  and  _62
REMARK   27  A    between atoms: _62  and  _63
REMARK   28  A    between atoms: _66  and  _68
REMARK   29  A    between atoms: _68  and  _69
REMARK   30  A    between atoms: _68  and  _71
REMARK   31  A    between atoms: _71  and  _72
REMARK   32  A    between atoms: _72  and  _73
REMARK   33  A    between atoms: _76  and  _78
REMARK   34  A    between atoms: _78  and  _79
REMARK   35  A    between atoms: _78  and  _81
REMARK   36  A    between atoms: _81  and  _82
REMARK   37  A    between atoms: _84  and  _86
REMARK   38  A    between atoms: _86  and  _87
REMARK   39  A    between atoms: _86  and  _89
REMARK   40  A    between atoms: _89  and  _90
REMARK   41  A    between atoms: _95  and  _96
REMARK   42  A    between atoms: _98  and  _100
REMARK   43  A    between atoms: _100  and  _101
REMARK   44  A    between atoms: _100  and  _103
REMARK   45  A    between atoms: _103  and  _104
REMARK   46  A    between atoms: _104  and  _105
REMARK   47  A    between atoms: _108  and  _110
REMARK   48  A    between atoms: _110  and  _111
REMARK   49  A    between atoms: _110  and  _113
REMARK   50  A    between atoms: _113  and  _114
REMARK   51  A    between atoms: _120  and  _122
REMARK   52  A    between atoms: _122  and  _123
REMARK   53  A    between atoms: _122  and  _125
REMARK   54  A    between atoms: _125  and  _126
REMARK   55  A    between atoms: _128  and  _130
REMARK   56  A    between atoms: _130  and  _131
REMARK   57  A    between atoms: _133  and  _135
REMARK   58  A    between atoms: _135  and  _136
REMARK   59  A    between atoms: _135  and  _138
REMARK   60  A    between atoms: _138  and  _139
REMARK   61  A    between atoms: _143  and  _144
REMARK   62  A    between atoms: _149  and  _151
REMARK   63  A    between atoms: _151  and  _152
REMARK   64  A    between atoms: _155  and  _157
REMARK   65  A    between atoms: _157  and  _158
REMARK   66  A    between atoms: _160  and  _162
REMARK   67  A    between atoms: _162  and  _163
REMARK   68  A    between atoms: _162  and  _165
REMARK   69  A    between atoms: _165  and  _166
REMARK   70  A    between atoms: _169  and  _171
REMARK   71  A    between atoms: _171  and  _172
REMARK   72  A    between atoms: _171  and  _174
REMARK   73  A    between atoms: _174  and  _175
REMARK   74  A    between atoms: _180  and  _182
REMARK   75  A    between atoms: _182  and  _183
REMARK   76  A    between atoms: _182  and  _185
REMARK   77  A    between atoms: _185  and  _186
REMARK   78  A    between atoms: _190  and  _191
REMARK   79  A    between atoms: _196  and  _198
REMARK   80  A    between atoms: _198  and  _199
REMARK   81  A    between atoms: _198  and  _201
REMARK   82  A    between atoms: _201  and  _202
REMARK   83  A    between atoms: _207  and  _209
REMARK   84  A    between atoms: _209  and  _210
REMARK   85  A    between atoms: _209  and  _212
REMARK   86  A    between atoms: _212  and  _213
REMARK   87  A    between atoms: _218  and  _219
REMARK   88  A    between atoms: _221  and  _223
REMARK   89  A    between atoms: _223  and  _224
REMARK   90  A    between atoms: _223  and  _226
REMARK   91  A    between atoms: _226  and  _227
REMARK   92  A    between atoms: _230  and  _232
REMARK   93  A    between atoms: _232  and  _233
REMARK   94  A    between atoms: _232  and  _235
REMARK   95  A    between atoms: _235  and  _236
REMARK   96  A    between atoms: _236  and  _237
REMARK   97  A    between atoms: _237  and  _238
REMARK   98  A    between atoms: _247  and  _249
REMARK   99  A    between atoms: _249  and  _250
REMARK  100  A    between atoms: _249  and  _252
REMARK  101  A    between atoms: _252  and  _253
REMARK  102  A    between atoms: _253  and  _254
REMARK  103  A    between atoms: _254  and  _255
REMARK  104  A    between atoms: _255  and  _256
REMARK  105  A    between atoms: _260  and  _262
REMARK  106  A    between atoms: _262  and  _263
REMARK  107  A    between atoms: _262  and  _265
REMARK  108  A    between atoms: _265  and  _266
REMARK  109  A    between atoms: _271  and  _273
REMARK  110  A    between atoms: _273  and  _274
REMARK  111  A    between atoms: _273  and  _276
REMARK  112  A    between atoms: _279  and  _281
REMARK  113  A    between atoms: _281  and  _282
REMARK  114  A    between atoms: _281  and  _284
REMARK  115  A    between atoms: _284  and  _285
REMARK  116  A    between atoms: _288  and  _290
REMARK  117  A    between atoms: _290  and  _291
REMARK  118  A    between atoms: _290  and  _293
REMARK  119  A    between atoms: _296  and  _298
REMARK  120  A    between atoms: _298  and  _299
REMARK  121  A    between atoms: _298  and  _301
REMARK  122  A    between atoms: _301  and  _302
REMARK  123  A    between atoms: _305  and  _307
REMARK  124  A    between atoms: _307  and  _308
REMARK  125  A    between atoms: _311  and  _313
REMARK  126  A    between atoms: _313  and  _314
REMARK  127  A    between atoms: _313  and  _316
REMARK  128  A    between atoms: _319  and  _321
REMARK  129  A    between atoms: _321  and  _322
REMARK  130  A    between atoms: _325  and  _327
REMARK  131  A    between atoms: _327  and  _328
REMARK  132  A    between atoms: _331  and  _333
REMARK  133  A    between atoms: _333  and  _334
REMARK  134  A    between atoms: _333  and  _336
REMARK  135  A    between atoms: _336  and  _337
REMARK  136  A    between atoms: _342  and  _343
REMARK  137  A    between atoms: _345  and  _347
REMARK  138  A    between atoms: _347  and  _348
REMARK  139  A    between atoms: _347  and  _350
REMARK  140  A    between atoms: _350  and  _351
REMARK  141  A    between atoms: _351  and  _352
REMARK  142  A    between atoms: _352  and  _353
REMARK  143  A    between atoms: _353  and  _354
REMARK  144  A    between atoms: _358  and  _360
REMARK  145  A    between atoms: _360  and  _361
REMARK  146  A    between atoms: _360  and  _363
REMARK  147  A    between atoms: _363  and  _364
REMARK  148  A    between atoms: _366  and  _368
REMARK  149  A    between atoms: _368  and  _369
REMARK  150  A    between atoms: _368  and  _371
REMARK  151  A    between atoms: _371  and  _372
REMARK  152  A    between atoms: _378  and  _380
REMARK  153  A    between atoms: _380  and  _381
REMARK  154  A    between atoms: _380  and  _383
REMARK  155  A    between atoms: _383  and  _384
REMARK  156  A    between atoms: _387  and  _389
REMARK  157  A    between atoms: _389  and  _390
REMARK  158  A    between atoms: _389  and  _392
REMARK  159  A    between atoms: _395  and  _397
REMARK  160  A    between atoms: _397  and  _398
REMARK  161  A    between atoms: _397  and  _400
REMARK  162  A    between atoms: _400  and  _401
REMARK  163  A    between atoms: _401  and  _402
REMARK  164  A    between atoms: _407  and  _409
REMARK  165  A    between atoms: _409  and  _410
REMARK  166  A    between atoms: _409  and  _412
REMARK  167  A    between atoms: _415  and  _417
REMARK  168  A    between atoms: _417  and  _418
REMARK  169  A    between atoms: _420  and  _422
REMARK  170  A    between atoms: _422  and  _423
REMARK  171  A    between atoms: _422  and  _425
REMARK  172  A    between atoms: _425  and  _426
REMARK  173  A    between atoms: _429  and  _431
REMARK  174  A    between atoms: _431  and  _432
REMARK  175  A    between atoms: _431  and  _434
REMARK  176  A    between atoms: _434  and  _435
REMARK  177  A    between atoms: _440  and  _442
REMARK  178  A    between atoms: _442  and  _443
REMARK  179  A    between atoms: _446  and  _448
REMARK  180  A    between atoms: _448  and  _449
REMARK  181  A    between atoms: _448  and  _451
REMARK  182  A    between atoms: _451  and  _452
REMARK  183  A    between atoms: _457  and  _459
REMARK  184  A    between atoms: _459  and  _460
REMARK  185  A    between atoms: _459  and  _462
REMARK  186  A    between atoms: _462  and  _463
REMARK  187  A    between atoms: _473  and  _475
REMARK  188  A    between atoms: _475  and  _476
REMARK  189  A    between atoms: _475  and  _478
REMARK  190  A    between atoms: _478  and  _479
REMARK  191  A    between atoms: _482  and  _484
REMARK  192  A    between atoms: _484  and  _485
REMARK  193  A    between atoms: _488  and  _490
REMARK  194  A    between atoms: _490  and  _491
REMARK  195  A    between atoms: _490  and  _493
REMARK  196  A    between atoms: _493  and  _494
REMARK  197  A    between atoms: _496  and  _498
REMARK  198  A    between atoms: _498  and  _499
REMARK  199  A    between atoms: _498  and  _501
REMARK  200  A    between atoms: _501  and  _502
REMARK  201  A    between atoms: _502  and  _503
REMARK  202  A    between atoms: _506  and  _508
REMARK  203  A    between atoms: _508  and  _509
REMARK  204  A    between atoms: _508  and  _511
REMARK  205  A    between atoms: _511  and  _512
REMARK  206  A    between atoms: _512  and  _513
REMARK  207  A    between atoms: _516  and  _518
REMARK  208  A    between atoms: _518  and  _519
REMARK  209  A    between atoms: _518  and  _521
REMARK  210  A    between atoms: _521  and  _522
REMARK  211  A    between atoms: _522  and  _523
REMARK  212  A    between atoms: _523  and  _524
REMARK  213  A    between atoms: _533  and  _535
REMARK  214  A    between atoms: _535  and  _536
REMARK  215  A    between atoms: _539  and  _541
REMARK  216  A    between atoms: _541  and  _542
REMARK  217  A    between atoms: _541  and  _544
REMARK  218  A    between atoms: _544  and  _545
REMARK  219  A    between atoms: _545  and  _546
REMARK  220  A    between atoms: _549  and  _551
REMARK  221  A    between atoms: _551  and  _552
REMARK  222  A    between atoms: _554  and  _556
REMARK  223  A    between atoms: _556  and  _557
REMARK  224  A    between atoms: _556  and  _559
REMARK  225  A    between atoms: _559  and  _560
REMARK  226  A    between atoms: _565  and  _567
REMARK  227  A    between atoms: _567  and  _568
REMARK  228  A    between atoms: _567  and  _570
REMARK  229  A    between atoms: _570  and  _571
REMARK  230  A    between atoms: _576  and  _578
REMARK  231  A    between atoms: _578  and  _579
REMARK  232  A    between atoms: _578  and  _581
REMARK  233  A    between atoms: _581  and  _582
REMARK  234  A    between atoms: _582  and  _583
REMARK  235  A    between atoms: _585  and  _587
REMARK  236  A    between atoms: _587  and  _588
REMARK  237  A    between atoms: _587  and  _590
REMARK  238  A    between atoms: _590  and  _591
REMARK  239  A    between atoms: _591  and  _592
REMARK  240  A    between atoms: _597  and  _599
REMARK  241  A    between atoms: _599  and  _600
REMARK  242  A    between atoms: _603  and  _605
REMARK  243  A    between atoms: _605  and  _606
REMARK  244  A    between atoms: _605  and  _608
REMARK  245  A    between atoms: _608  and  _609
REMARK  246  A    between atoms: _614  and  _616
REMARK  247  A    between atoms: _616  and  _617
REMARK  248  A    between atoms: _616  and  _619
REMARK  249  A    between atoms: _619  and  _620
REMARK  250  A    between atoms: _620  and  _621
REMARK  251  A    between atoms: _623  and  _625
REMARK  252  A    between atoms: _625  and  _626
REMARK  253  A    between atoms: _625  and  _628
REMARK  254  A    between atoms: _628  and  _629
REMARK  255  A    between atoms: _629  and  _630
REMARK  256  A    between atoms: _630  and  _631
REMARK  257  A    between atoms: _640  and  _642
REMARK  258  A    between atoms: _642  and  _643
REMARK  259  A    between atoms: _642  and  _645
REMARK  260  A    between atoms: _645  and  _646
REMARK  261  A    between atoms: _646  and  _647
REMARK  262  A    between atoms: _647  and  _648
REMARK  263  A    between atoms: _648  and  _649
REMARK  264  A    between atoms: _653  and  _655
REMARK  265  A    between atoms: _655  and  _656
REMARK  266  A    between atoms: _655  and  _658
REMARK  267  A    between atoms: _658  and  _659
REMARK  268  A    between atoms: _661  and  _663
REMARK  269  A    between atoms: _663  and  _664
REMARK  270  A    between atoms: _663  and  _666
REMARK  271  A    between atoms: _666  and  _667
REMARK  272  A    between atoms: _667  and  _668
REMARK  273  A    between atoms: _668  and  _669
REMARK  274  A    between atoms: _678  and  _680
REMARK  275  A    between atoms: _680  and  _681
REMARK  276  A    between atoms: _680  and  _683
REMARK  277  A    between atoms: _683  and  _684
REMARK  278  A    between atoms: _684  and  _685
REMARK  279  A    between atoms: _685  and  _686
REMARK  280  A    between atoms: _686  and  _687
REMARK  281  A    between atoms: _691  and  _693
REMARK  282  A    between atoms: _693  and  _694
REMARK  283  A    between atoms: _693  and  _696
REMARK  284  A    between atoms: _696  and  _697
REMARK  285  A    between atoms: _700  and  _702
REMARK  286  A    between atoms: _702  and  _703
REMARK  287  A    between atoms: _702  and  _705
REMARK  288  A    between atoms: _705  and  _706
REMARK                            x       y       z     vdW  Elec       q    Type
REMARK                         _______ _______ _______ _____ _____    ______ ____
ROOT
ATOM      1  O   HOH     1       6.748  14.061  46.203  0.00  0.00    +0.000 OA
ENDROOT
TORSDOF 0
REMARK  Name = ../refined-set-2016/3t6b/3t6b_pocket.pdb
REMARK  288 active torsions:
REMARK  status: ('A' for Active; 'I' for Inactive)
REMARK    1  A    between atoms: _1  and  _3
REMARK    2  A    between atoms: _3  and  _4
REMARK    3  A    between atoms: _6  and  _8
REMARK    4  A    between atoms: _8  and  _9
REMARK    5  A    between atoms: _8  and  _11
REMARK    6  A    between atoms: _11  and  _12
REMARK    7  A    between atoms: _14  and  _16
REMARK    8  A    between atoms: _16  and  _17
REMARK    9  A    between atoms: _16  and  _19
REMARK   10  A    between atoms: _19  and  _20
REMARK   11  A    between atoms: _23  and  _25
REMARK   12  A    between atoms: _25  and  _26
REMARK   13  A    between atoms: _25  and  _28
REMARK   14  A    between atoms: _28  and  _29
REMARK   15  A    between atoms: _31  and  _33
REMARK   16  A    between atoms: _33  and  _34
REMARK   17  A    between atoms: _33  and  _36
REMARK   18  A    between atoms: _36  and  _37
REMARK   19  A    between atoms: _43  and  _45
REMARK   20  A    between atoms: _45  and  _46
REMARK   21  A    between atoms: _45  and  _48
REMARK   22  A    between atoms: _48  and  _49
REMARK   23  A    between atoms: _54  and  _55
REMARK   24  A    between atoms: _57  and  _59
REMARK   25  A    between atoms: _59  and  _60
REMARK   26  A    between atoms: _59  and  _62
REMARK   27  A    between atoms: _62  and  _63
REMARK   28  A    between atoms: _66  and  _68
REMARK   29  A    between atoms: _68  and  _69
REMARK   30  A    between atoms: _68  and  _71
REMARK   31  A    between atoms: _71  and  _72
REMARK   32  A    between atoms: _72  and  _73
REMARK   33  A    between atoms: _76  and  _78
REMARK   34  A    between atoms: _78  and  _79
REMARK   35  A    between atoms: _78  and  _81
REMARK   36  A    between atoms: _81  and  _82
REMARK   37  A    between atoms: _84  and  _86
REMARK   38  A    between atoms: _86  and  _87
REMARK   39  A    between atoms: _86  and  _89
REMARK   40  A    between atoms: _89  and  _90
REMARK   41  A    between atoms: _95  and  _96
REMARK   42  A    between atoms: _98  and  _100
REMARK   43  A    between atoms: _100  and  _101
REMARK   44  A    between atoms: _100  and  _103
REMARK   45  A    between atoms: _103  and  _104
REMARK   46  A    between atoms: _104  and  _105
REMARK   47  A    between atoms: _108  and  _110
REMARK   48  A    between atoms: _110  and  _111
REMARK   49  A    between atoms: _110  and  _113
REMARK   50  A    between atoms: _113  and  _114
REMARK   51  A    between atoms: _120  and  _122
REMARK   52  A    between atoms: _122  and  _123
REMARK   53  A    between atoms: _122  and  _125
REMARK   54  A    between atoms: _125  and  _126
REMARK   55  A    between atoms: _128  and  _130
REMARK   56  A    between atoms: _130  and  _131
REMARK   57  A    between atoms: _133  and  _135
REMARK   58  A    between atoms: _135  and  _136
REMARK   59  A    between atoms: _135  and  _138
REMARK   60  A    between atoms: _138  and  _139
REMARK   61  A    between atoms: _143  and  _144
REMARK   62  A    between atoms: _149  and  _151
REMARK   63  A    between atoms: _151  and  _152
REMARK   64  A    between atoms: _155  and  _157
REMARK   65  A    between atoms: _157  and  _158
REMARK   66  A    between atoms: _160  and  _162
REMARK   67  A    between atoms: _162  and  _163
REMARK   68  A    between atoms: _162  and  _165
REMARK   69  A    between atoms: _165  and  _166
REMARK   70  A    between atoms: _169  and  _171
REMARK   71  A    between atoms: _171  and  _172
REMARK   72  A    between atoms: _171  and  _174
REMARK   73  A    between atoms: _174  and  _175
REMARK   74  A    between atoms: _180  and  _182
REMARK   75  A    between atoms: _182  and  _183
REMARK   76  A    between atoms: _182  and  _185
REMARK   77  A    between atoms: _185  and  _186
REMARK   78  A    between atoms: _190  and  _191
REMARK   79  A    between atoms: _196  and  _198
REMARK   80  A    between atoms: _198  and  _199
REMARK   81  A    between atoms: _198  and  _201
REMARK   82  A    between atoms: _201  and  _202
REMARK   83  A    between atoms: _207  and  _209
REMARK   84  A    between atoms: _209  and  _210
REMARK   85  A    between atoms: _209  and  _212
REMARK   86  A    between atoms: _212  and  _213
REMARK   87  A    between atoms: _218  and  _219
REMARK   88  A    between atoms: _221  and  _223
REMARK   89  A    between atoms: _223  and  _224
REMARK   90  A    between atoms: _223  and  _226
REMARK   91  A    between atoms: _226  and  _227
REMARK   92  A    between atoms: _230  and  _232
REMARK   93  A    between atoms: _232  and  _233
REMARK   94  A    between atoms: _232  and  _235
REMARK   95  A    between atoms: _235  and  _236
REMARK   96  A    between atoms: _236  and  _237
REMARK   97  A    between atoms: _237  and  _238
REMARK   98  A    between atoms: _247  and  _249
REMARK   99  A    between atoms: _249  and  _250
REMARK  100  A    between atoms: _249  and  _252
REMARK  101  A    between atoms: _252  and  _253
REMARK  102  A    between atoms: _253  and  _254
REMARK  103  A    between atoms: _254  and  _255
REMARK  104  A    between atoms: _255  and  _256
REMARK  105  A    between atoms: _260  and  _262
REMARK  106  A    between atoms: _262  and  _263
REMARK  107  A    between atoms: _262  and  _265
REMARK  108  A    between atoms: _265  and  _266
REMARK  109  A    between atoms: _271  and  _273
REMARK  110  A    between atoms: _273  and  _274
REMARK  111  A    between atoms: _273  and  _276
REMARK  112  A    between atoms: _279  and  _281
REMARK  113  A    between atoms: _281  and  _282
REMARK  114  A    between atoms: _281  and  _284
REMARK  115  A    between atoms: _284  and  _285
REMARK  116  A    between atoms: _288  and  _290
REMARK  117  A    between atoms: _290  and  _291
REMARK  118  A    between atoms: _290  and  _293
REMARK  119  A    between atoms: _296  and  _298
REMARK  120  A    between atoms: _298  and  _299
REMARK  121  A    between atoms: _298  and  _301
REMARK  122  A    between atoms: _301  and  _302
REMARK  123  A    between atoms: _305  and  _307
REMARK  124  A    between atoms: _307  and  _308
REMARK  125  A    between atoms: _311  and  _313
REMARK  126  A    between atoms: _313  and  _314
REMARK  127  A    between atoms: _313  and  _316
REMARK  128  A    between atoms: _319  and  _321
REMARK  129  A    between atoms: _321  and  _322
REMARK  130  A    between atoms: _325  and  _327
REMARK  131  A    between atoms: _327  and  _328
REMARK  132  A    between atoms: _331  and  _333
REMARK  133  A    between atoms: _333  and  _334
REMARK  134  A    between atoms: _333  and  _336
REMARK  135  A    between atoms: _336  and  _337
REMARK  136  A    between atoms: _342  and  _343
REMARK  137  A    between atoms: _345  and  _347
REMARK  138  A    between atoms: _347  and  _348
REMARK  139  A    between atoms: _347  and  _350
REMARK  140  A    between atoms: _350  and  _351
REMARK  141  A    between atoms: _351  and  _352
REMARK  142  A    between atoms: _352  and  _353
REMARK  143  A    between atoms: _353  and  _354
REMARK  144  A    between atoms: _358  and  _360
REMARK  145  A    between atoms: _360  and  _361
REMARK  146  A    between atoms: _360  and  _363
REMARK  147  A    between atoms: _363  and  _364
REMARK  148  A    between atoms: _366  and  _368
REMARK  149  A    between atoms: _368  and  _369
REMARK  150  A    between atoms: _368  and  _371
REMARK  151  A    between atoms: _371  and  _372
REMARK  152  A    between atoms: _378  and  _380
REMARK  153  A    between atoms: _380  and  _381
REMARK  154  A    between atoms: _380  and  _383
REMARK  155  A    between atoms: _383  and  _384
REMARK  156  A    between atoms: _387  and  _389
REMARK  157  A    between atoms: _389  and  _390
REMARK  158  A    between atoms: _389  and  _392
REMARK  159  A    between atoms: _395  and  _397
REMARK  160  A    between atoms: _397  and  _398
REMARK  161  A    between atoms: _397  and  _400
REMARK  162  A    between atoms: _400  and  _401
REMARK  163  A    between atoms: _401  and  _402
REMARK  164  A    between atoms: _407  and  _409
REMARK  165  A    between atoms: _409  and  _410
REMARK  166  A    between atoms: _409  and  _412
REMARK  167  A    between atoms: _415  and  _417
REMARK  168  A    between atoms: _417  and  _418
REMARK  169  A    between atoms: _420  and  _422
REMARK  170  A    between atoms: _422  and  _423
REMARK  171  A    between atoms: _422  and  _425
REMARK  172  A    between atoms: _425  and  _426
REMARK  173  A    between atoms: _429  and  _431
REMARK  174  A    between atoms: _431  and  _432
REMARK  175  A    between atoms: _431  and  _434
REMARK  176  A    between atoms: _434  and  _435
REMARK  177  A    between atoms: _440  and  _442
REMARK  178  A    between atoms: _442  and  _443
REMARK  179  A    between atoms: _446  and  _448
REMARK  180  A    between atoms: _448  and  _449
REMARK  181  A    between atoms: _448  and  _451
REMARK  182  A    between atoms: _451  and  _452
REMARK  183  A    between atoms: _457  and  _459
REMARK  184  A    between atoms: _459  and  _460
REMARK  185  A    between atoms: _459  and  _462
REMARK  186  A    between atoms: _462  and  _463
REMARK  187  A    between atoms: _473  and  _475
REMARK  188  A    between atoms: _475  and  _476
REMARK  189  A    between atoms: _475  and  _478
REMARK  190  A    between atoms: _478  and  _479
REMARK  191  A    between atoms: _482  and  _484
REMARK  192  A    between atoms: _484  and  _485
REMARK  193  A    between atoms: _488  and  _490
REMARK  194  A    between atoms: _490  and  _491
REMARK  195  A    between atoms: _490  and  _493
REMARK  196  A    between atoms: _493  and  _494
REMARK  197  A    between atoms: _496  and  _498
REMARK  198  A    between atoms: _498  and  _499
REMARK  199  A    between atoms: _498  and  _501
REMARK  200  A    between atoms: _501  and  _502
REMARK  201  A    between atoms: _502  and  _503
REMARK  202  A    between atoms: _506  and  _508
REMARK  203  A    between atoms: _508  and  _509
REMARK  204  A    between atoms: _508  and  _511
REMARK  205  A    between atoms: _511  and  _512
REMARK  206  A    between atoms: _512  and  _513
REMARK  207  A    between atoms: _516  and  _518
REMARK  208  A    between atoms: _518  and  _519
REMARK  209  A    between atoms: _518  and  _521
REMARK  210  A    between atoms: _521  and  _522
REMARK  211  A    between atoms: _522  and  _523
REMARK  212  A    between atoms: _523  and  _524
REMARK  213  A    between atoms: _533  and  _535
REMARK  214  A    between atoms: _535  and  _536
REMARK  215  A    between atoms: _539  and  _541
REMARK  216  A    between atoms: _541  and  _542
REMARK  217  A    between atoms: _541  and  _544
REMARK  218  A    between atoms: _544  and  _545
REMARK  219  A    between atoms: _545  and  _546
REMARK  220  A    between atoms: _549  and  _551
REMARK  221  A    between atoms: _551  and  _552
REMARK  222  A    between atoms: _554  and  _556
REMARK  223  A    between atoms: _556  and  _557
REMARK  224  A    between atoms: _556  and  _559
REMARK  225  A    between atoms: _559  and  _560
REMARK  226  A    between atoms: _565  and  _567
REMARK  227  A    between atoms: _567  and  _568
REMARK  228  A    between atoms: _567  and  _570
REMARK  229  A    between atoms: _570  and  _571
REMARK  230  A    between atoms: _576  and  _578
REMARK  231  A    between atoms: _578  and  _579
REMARK  232  A    between atoms: _578  and  _581
REMARK  233  A    between atoms: _581  and  _582
REMARK  234  A    between atoms: _582  and  _583
REMARK  235  A    between atoms: _585  and  _587
REMARK  236  A    between atoms: _587  and  _588
REMARK  237  A    between atoms: _587  and  _590
REMARK  238  A    between atoms: _590  and  _591
REMARK  239  A    between atoms: _591  and  _592
REMARK  240  A    between atoms: _597  and  _599
REMARK  241  A    between atoms: _599  and  _600
REMARK  242  A    between atoms: _603  and  _605
REMARK  243  A    between atoms: _605  and  _606
REMARK  244  A    between atoms: _605  and  _608
REMARK  245  A    between atoms: _608  and  _609
REMARK  246  A    between atoms: _614  and  _616
REMARK  247  A    between atoms: _616  and  _617
REMARK  248  A    between atoms: _616  and  _619
REMARK  249  A    between atoms: _619  and  _620
REMARK  250  A    between atoms: _620  and  _621
REMARK  251  A    between atoms: _623  and  _625
REMARK  252  A    between atoms: _625  and  _626
REMARK  253  A    between atoms: _625  and  _628
REMARK  254  A    between atoms: _628  and  _629
REMARK  255  A    between atoms: _629  and  _630
REMARK  256  A    between atoms: _630  and  _631
REMARK  257  A    between atoms: _640  and  _642
REMARK  258  A    between atoms: _642  and  _643
REMARK  259  A    between atoms: _642  and  _645
REMARK  260  A    between atoms: _645  and  _646
REMARK  261  A    between atoms: _646  and  _647
REMARK  262  A    between atoms: _647  and  _648
REMARK  263  A    between atoms: _648  and  _649
REMARK  264  A    between atoms: _653  and  _655
REMARK  265  A    between atoms: _655  and  _656
REMARK  266  A    between atoms: _655  and  _658
REMARK  267  A    between atoms: _658  and  _659
REMARK  268  A    between atoms: _661  and  _663
REMARK  269  A    between atoms: _663  and  _664
REMARK  270  A    between atoms: _663  and  _666
REMARK  271  A    between atoms: _666  and  _667
REMARK  272  A    between atoms: _667  and  _668
REMARK  273  A    between atoms: _668  and  _669
REMARK  274  A    between atoms: _678  and  _680
REMARK  275  A    between atoms: _680  and  _681
REMARK  276  A    between atoms: _680  and  _683
REMARK  277  A    between atoms: _683  and  _684
REMARK  278  A    between atoms: _684  and  _685
REMARK  279  A    between atoms: _685  and  _686
REMARK  280  A    between atoms: _686  and  _687
REMARK  281  A    between atoms: _691  and  _693
REMARK  282  A    between atoms: _693  and  _694
REMARK  283  A    between atoms: _693  and  _696
REMARK  284  A    between atoms: _696  and  _697
REMARK  285  A    between atoms: _700  and  _702
REMARK  286  A    between atoms: _702  and  _703
REMARK  287  A    between atoms: _702  and  _705
REMARK  288  A    between atoms: _705  and  _706
REMARK                            x       y       z     vdW  Elec       q    Type
REMARK                         _______ _______ _______ _____ _____    ______ ____
ROOT
ATOM      1  O   HOH     1      17.460  15.730  63.870  0.00  0.00    +0.000 OA
ENDROOT
TORSDOF 0
REMARK  Name = ../refined-set-2016/3t6b/3t6b_pocket.pdb
REMARK  288 active torsions:
REMARK  status: ('A' for Active; 'I' for Inactive)
REMARK    1  A    between atoms: _1  and  _3
REMARK    2  A    between atoms: _3  and  _4
REMARK    3  A    between atoms: _6  and  _8
REMARK    4  A    between atoms: _8  and  _9
REMARK    5  A    between atoms: _8  and  _11
REMARK    6  A    between atoms: _11  and  _12
REMARK    7  A    between atoms: _14  and  _16
REMARK    8  A    between atoms: _16  and  _17
REMARK    9  A    between atoms: _16  and  _19
REMARK   10  A    between atoms: _19  and  _20
REMARK   11  A    between atoms: _23  and  _25
REMARK   12  A    between atoms: _25  and  _26
REMARK   13  A    between atoms: _25  and  _28
REMARK   14  A    between atoms: _28  and  _29
REMARK   15  A    between atoms: _31  and  _33
REMARK   16  A    between atoms: _33  and  _34
REMARK   17  A    between atoms: _33  and  _36
REMARK   18  A    between atoms: _36  and  _37
REMARK   19  A    between atoms: _43  and  _45
REMARK   20  A    between atoms: _45  and  _46
REMARK   21  A    between atoms: _45  and  _48
REMARK   22  A    between atoms: _48  and  _49
REMARK   23  A    between atoms: _54  and  _55
REMARK   24  A    between atoms: _57  and  _59
REMARK   25  A    between atoms: _59  and  _60
REMARK   26  A    between atoms: _59  and  _62
REMARK   27  A    between atoms: _62  and  _63
REMARK   28  A    between atoms: _66  and  _68
REMARK   29  A    between atoms: _68  and  _69
REMARK   30  A    between atoms: _68  and  _71
REMARK   31  A    between atoms: _71  and  _72
REMARK   32  A    between atoms: _72  and  _73
REMARK   33  A    between atoms: _76  and  _78
REMARK   34  A    between atoms: _78  and  _79
REMARK   35  A    between atoms: _78  and  _81
REMARK   36  A    between atoms: _81  and  _82
REMARK   37  A    between atoms: _84  and  _86
REMARK   38  A    between atoms: _86  and  _87
REMARK   39  A    between atoms: _86  and  _89
REMARK   40  A    between atoms: _89  and  _90
REMARK   41  A    between atoms: _95  and  _96
REMARK   42  A    between atoms: _98  and  _100
REMARK   43  A    between atoms: _100  and  _101
REMARK   44  A    between atoms: _100  and  _103
REMARK   45  A    between atoms: _103  and  _104
REMARK   46  A    between atoms: _104  and  _105
REMARK   47  A    between atoms: _108  and  _110
REMARK   48  A    between atoms: _110  and  _111
REMARK   49  A    between atoms: _110  and  _113
REMARK   50  A    between atoms: _113  and  _114
REMARK   51  A    between atoms: _120  and  _122
REMARK   52  A    between atoms: _122  and  _123
REMARK   53  A    between atoms: _122  and  _125
REMARK   54  A    between atoms: _125  and  _126
REMARK   55  A    between atoms: _128  and  _130
REMARK   56  A    between atoms: _130  and  _131
REMARK   57  A    between atoms: _133  and  _135
REMARK   58  A    between atoms: _135  and  _136
REMARK   59  A    between atoms: _135  and  _138
REMARK   60  A    between atoms: _138  and  _139
REMARK   61  A    between atoms: _143  and  _144
REMARK   62  A    between atoms: _149  and  _151
REMARK   63  A    between atoms: _151  and  _152
REMARK   64  A    between atoms: _155  and  _157
REMARK   65  A    between atoms: _157  and  _158
REMARK   66  A    between atoms: _160  and  _162
REMARK   67  A    between atoms: _162  and  _163
REMARK   68  A    between atoms: _162  and  _165
REMARK   69  A    between atoms: _165  and  _166
REMARK   70  A    between atoms: _169  and  _171
REMARK   71  A    between atoms: _171  and  _172
REMARK   72  A    between atoms: _171  and  _174
REMARK   73  A    between atoms: _174  and  _175
REMARK   74  A    between atoms: _180  and  _182
REMARK   75  A    between atoms: _182  and  _183
REMARK   76  A    between atoms: _182  and  _185
REMARK   77  A    between atoms: _185  and  _186
REMARK   78  A    between atoms: _190  and  _191
REMARK   79  A    between atoms: _196  and  _198
REMARK   80  A    between atoms: _198  and  _199
REMARK   81  A    between atoms: _198  and  _201
REMARK   82  A    between atoms: _201  and  _202
REMARK   83  A    between atoms: _207  and  _209
REMARK   84  A    between atoms: _209  and  _210
REMARK   85  A    between atoms: _209  and  _212
REMARK   86  A    between atoms: _212  and  _213
REMARK   87  A    between atoms: _218  and  _219
REMARK   88  A    between atoms: _221  and  _223
REMARK   89  A    between atoms: _223  and  _224
REMARK   90  A    between atoms: _223  and  _226
REMARK   91  A    between atoms: _226  and  _227
REMARK   92  A    between atoms: _230  and  _232
REMARK   93  A    between atoms: _232  and  _233
REMARK   94  A    between atoms: _232  and  _235
REMARK   95  A    between atoms: _235  and  _236
REMARK   96  A    between atoms: _236  and  _237
REMARK   97  A    between atoms: _237  and  _238
REMARK   98  A    between atoms: _247  and  _249
REMARK   99  A    between atoms: _249  and  _250
REMARK  100  A    between atoms: _249  and  _252
REMARK  101  A    between atoms: _252  and  _253
REMARK  102  A    between atoms: _253  and  _254
REMARK  103  A    between atoms: _254  and  _255
REMARK  104  A    between atoms: _255  and  _256
REMARK  105  A    between atoms: _260  and  _262
REMARK  106  A    between atoms: _262  and  _263
REMARK  107  A    between atoms: _262  and  _265
REMARK  108  A    between atoms: _265  and  _266
REMARK  109  A    between atoms: _271  and  _273
REMARK  110  A    between atoms: _273  and  _274
REMARK  111  A    between atoms: _273  and  _276
REMARK  112  A    between atoms: _279  and  _281
REMARK  113  A    between atoms: _281  and  _282
REMARK  114  A    between atoms: _281  and  _284
REMARK  115  A    between atoms: _284  and  _285
REMARK  116  A    between atoms: _288  and  _290
REMARK  117  A    between atoms: _290  and  _291
REMARK  118  A    between atoms: _290  and  _293
REMARK  119  A    between atoms: _296  and  _298
REMARK  120  A    between atoms: _298  and  _299
REMARK  121  A    between atoms: _298  and  _301
REMARK  122  A    between atoms: _301  and  _302
REMARK  123  A    between atoms: _305  and  _307
REMARK  124  A    between atoms: _307  and  _308
REMARK  125  A    between atoms: _311  and  _313
REMARK  126  A    between atoms: _313  and  _314
REMARK  127  A    between atoms: _313  and  _316
REMARK  128  A    between atoms: _319  and  _321
REMARK  129  A    between atoms: _321  and  _322
REMARK  130  A    between atoms: _325  and  _327
REMARK  131  A    between atoms: _327  and  _328
REMARK  132  A    between atoms: _331  and  _333
REMARK  133  A    between atoms: _333  and  _334
REMARK  134  A    between atoms: _333  and  _336
REMARK  135  A    between atoms: _336  and  _337
REMARK  136  A    between atoms: _342  and  _343
REMARK  137  A    between atoms: _345  and  _347
REMARK  138  A    between atoms: _347  and  _348
REMARK  139  A    between atoms: _347  and  _350
REMARK  140  A    between atoms: _350  and  _351
REMARK  141  A    between atoms: _351  and  _352
REMARK  142  A    between atoms: _352  and  _353
REMARK  143  A    between atoms: _353  and  _354
REMARK  144  A    between atoms: _358  and  _360
REMARK  145  A    between atoms: _360  and  _361
REMARK  146  A    between atoms: _360  and  _363
REMARK  147  A    between atoms: _363  and  _364
REMARK  148  A    between atoms: _366  and  _368
REMARK  149  A    between atoms: _368  and  _369
REMARK  150  A    between atoms: _368  and  _371
REMARK  151  A    between atoms: _371  and  _372
REMARK  152  A    between atoms: _378  and  _380
REMARK  153  A    between atoms: _380  and  _381
REMARK  154  A    between atoms: _380  and  _383
REMARK  155  A    between atoms: _383  and  _384
REMARK  156  A    between atoms: _387  and  _389
REMARK  157  A    between atoms: _389  and  _390
REMARK  158  A    between atoms: _389  and  _392
REMARK  159  A    between atoms: _395  and  _397
REMARK  160  A    between atoms: _397  and  _398
REMARK  161  A    between atoms: _397  and  _400
REMARK  162  A    between atoms: _400  and  _401
REMARK  163  A    between atoms: _401  and  _402
REMARK  164  A    between atoms: _407  and  _409
REMARK  165  A    between atoms: _409  and  _410
REMARK  166  A    between atoms: _409  and  _412
REMARK  167  A    between atoms: _415  and  _417
REMARK  168  A    between atoms: _417  and  _418
REMARK  169  A    between atoms: _420  and  _422
REMARK  170  A    between atoms: _422  and  _423
REMARK  171  A    between atoms: _422  and  _425
REMARK  172  A    between atoms: _425  and  _426
REMARK  173  A    between atoms: _429  and  _431
REMARK  174  A    between atoms: _431  and  _432
REMARK  175  A    between atoms: _431  and  _434
REMARK  176  A    between atoms: _434  and  _435
REMARK  177  A    between atoms: _440  and  _442
REMARK  178  A    between atoms: _442  and  _443
REMARK  179  A    between atoms: _446  and  _448
REMARK  180  A    between atoms: _448  and  _449
REMARK  181  A    between atoms: _448  and  _451
REMARK  182  A    between atoms: _451  and  _452
REMARK  183  A    between atoms: _457  and  _459
REMARK  184  A    between atoms: _459  and  _460
REMARK  185  A    between atoms: _459  and  _462
REMARK  186  A    between atoms: _462  and  _463
REMARK  187  A    between atoms: _473  and  _475
REMARK  188  A    between atoms: _475  and  _476
REMARK  189  A    between atoms: _475  and  _478
REMARK  190  A    between atoms: _478  and  _479
REMARK  191  A    between atoms: _482  and  _484
REMARK  192  A    between atoms: _484  and  _485
REMARK  193  A    between atoms: _488  and  _490
REMARK  194  A    between atoms: _490  and  _491
REMARK  195  A    between atoms: _490  and  _493
REMARK  196  A    between atoms: _493  and  _494
REMARK  197  A    between atoms: _496  and  _498
REMARK  198  A    between atoms: _498  and  _499
REMARK  199  A    between atoms: _498  and  _501
REMARK  200  A    between atoms: _501  and  _502
REMARK  201  A    between atoms: _502  and  _503
REMARK  202  A    between atoms: _506  and  _508
REMARK  203  A    between atoms: _508  and  _509
REMARK  204  A    between atoms: _508  and  _511
REMARK  205  A    between atoms: _511  and  _512
REMARK  206  A    between atoms: _512  and  _513
REMARK  207  A    between atoms: _516  and  _518
REMARK  208  A    between atoms: _518  and  _519
REMARK  209  A    between atoms: _518  and  _521
REMARK  210  A    between atoms: _521  and  _522
REMARK  211  A    between atoms: _522  and  _523
REMARK  212  A    between atoms: _523  and  _524
REMARK  213  A    between atoms: _533  and  _535
REMARK  214  A    between atoms: _535  and  _536
REMARK  215  A    between atoms: _539  and  _541
REMARK  216  A    between atoms: _541  and  _542
REMARK  217  A    between atoms: _541  and  _544
REMARK  218  A    between atoms: _544  and  _545
REMARK  219  A    between atoms: _545  and  _546
REMARK  220  A    between atoms: _549  and  _551
REMARK  221  A    between atoms: _551  and  _552
REMARK  222  A    between atoms: _554  and  _556
REMARK  223  A    between atoms: _556  and  _557
REMARK  224  A    between atoms: _556  and  _559
REMARK  225  A    between atoms: _559  and  _560
REMARK  226  A    between atoms: _565  and  _567
REMARK  227  A    between atoms: _567  and  _568
REMARK  228  A    between atoms: _567  and  _570
REMARK  229  A    between atoms: _570  and  _571
REMARK  230  A    between atoms: _576  and  _578
REMARK  231  A    between atoms: _578  and  _579
REMARK  232  A    between atoms: _578  and  _581
REMARK  233  A    between atoms: _581  and  _582
REMARK  234  A    between atoms: _582  and  _583
REMARK  235  A    between atoms: _585  and  _587
REMARK  236  A    between atoms: _587  and  _588
REMARK  237  A    between atoms: _587  and  _590
REMARK  238  A    between atoms: _590  and  _591
REMARK  239  A    between atoms: _591  and  _592
REMARK  240  A    between atoms: _597  and  _599
REMARK  241  A    between atoms: _599  and  _600
REMARK  242  A    between atoms: _603  and  _605
REMARK  243  A    between atoms: _605  and  _606
REMARK  244  A    between atoms: _605  and  _608
REMARK  245  A    between atoms: _608  and  _609
REMARK  246  A    between atoms: _614  and  _616
REMARK  247  A    between atoms: _616  and  _617
REMARK  248  A    between atoms: _616  and  _619
REMARK  249  A    between atoms: _619  and  _620
REMARK  250  A    between atoms: _620  and  _621
REMARK  251  A    between atoms: _623  and  _625
REMARK  252  A    between atoms: _625  and  _626
REMARK  253  A    between atoms: _625  and  _628
REMARK  254  A    between atoms: _628  and  _629
REMARK  255  A    between atoms: _629  and  _630
REMARK  256  A    between atoms: _630  and  _631
REMARK  257  A    between atoms: _640  and  _642
REMARK  258  A    between atoms: _642  and  _643
REMARK  259  A    between atoms: _642  and  _645
REMARK  260  A    between atoms: _645  and  _646
REMARK  261  A    between atoms: _646  and  _647
REMARK  262  A    between atoms: _647  and  _648
REMARK  263  A    between atoms: _648  and  _649
REMARK  264  A    between atoms: _653  and  _655
REMARK  265  A    between atoms: _655  and  _656
REMARK  266  A    between atoms: _655  and  _658
REMARK  267  A    between atoms: _658  and  _659
REMARK  268  A    between atoms: _661  and  _663
REMARK  269  A    between atoms: _663  and  _664
REMARK  270  A    between atoms: _663  and  _666
REMARK  271  A    between atoms: _666  and  _667
REMARK  272  A    between atoms: _667  and  _668
REMARK  273  A    between atoms: _668  and  _669
REMARK  274  A    between atoms: _678  and  _680
REMARK  275  A    between atoms: _680  and  _681
REMARK  276  A    between atoms: _680  and  _683
REMARK  277  A    between atoms: _683  and  _684
REMARK  278  A    between atoms: _684  and  _685
REMARK  279  A    between atoms: _685  and  _686
REMARK  280  A    between atoms: _686  and  _687
REMARK  281  A    between atoms: _691  and  _693
REMARK  282  A    between atoms: _693  and  _694
REMARK  283  A    between atoms: _693  and  _696
REMARK  284  A    between atoms: _696  and  _697
REMARK  285  A    between atoms: _700  and  _702
REMARK  286  A    between atoms: _702  and  _703
REMARK  287  A    between atoms: _702  and  _705
REMARK  288  A    between atoms: _705  and  _706
REMARK                            x       y       z     vdW  Elec       q    Type
REMARK                         _______ _______ _______ _____ _____    ______ ____
ROOT
ATOM      1  O   HOH     1       7.858  13.882  49.238  0.00  0.00    +0.000 OA
ENDROOT
TORSDOF 0
REMARK  Name = ../refined-set-2016/3t6b/3t6b_pocket.pdb
REMARK  288 active torsions:
REMARK  status: ('A' for Active; 'I' for Inactive)
REMARK    1  A    between atoms: _1  and  _3
REMARK    2  A    between atoms: _3  and  _4
REMARK    3  A    between atoms: _6  and  _8
REMARK    4  A    between atoms: _8  and  _9
REMARK    5  A    between atoms: _8  and  _11
REMARK    6  A    between atoms: _11  and  _12
REMARK    7  A    between atoms: _14  and  _16
REMARK    8  A    between atoms: _16  and  _17
REMARK    9  A    between atoms: _16  and  _19
REMARK   10  A    between atoms: _19  and  _20
REMARK   11  A    between atoms: _23  and  _25
REMARK   12  A    between atoms: _25  and  _26
REMARK   13  A    between atoms: _25  and  _28
REMARK   14  A    between atoms: _28  and  _29
REMARK   15  A    between atoms: _31  and  _33
REMARK   16  A    between atoms: _33  and  _34
REMARK   17  A    between atoms: _33  and  _36
REMARK   18  A    between atoms: _36  and  _37
REMARK   19  A    between atoms: _43  and  _45
REMARK   20  A    between atoms: _45  and  _46
REMARK   21  A    between atoms: _45  and  _48
REMARK   22  A    between atoms: _48  and  _49
REMARK   23  A    between atoms: _54  and  _55
REMARK   24  A    between atoms: _57  and  _59
REMARK   25  A    between atoms: _59  and  _60
REMARK   26  A    between atoms: _59  and  _62
REMARK   27  A    between atoms: _62  and  _63
REMARK   28  A    between atoms: _66  and  _68
REMARK   29  A    between atoms: _68  and  _69
REMARK   30  A    between atoms: _68  and  _71
REMARK   31  A    between atoms: _71  and  _72
REMARK   32  A    between atoms: _72  and  _73
REMARK   33  A    between atoms: _76  and  _78
REMARK   34  A    between atoms: _78  and  _79
REMARK   35  A    between atoms: _78  and  _81
REMARK   36  A    between atoms: _81  and  _82
REMARK   37  A    between atoms: _84  and  _86
REMARK   38  A    between atoms: _86  and  _87
REMARK   39  A    between atoms: _86  and  _89
REMARK   40  A    between atoms: _89  and  _90
REMARK   41  A    between atoms: _95  and  _96
REMARK   42  A    between atoms: _98  and  _100
REMARK   43  A    between atoms: _100  and  _101
REMARK   44  A    between atoms: _100  and  _103
REMARK   45  A    between atoms: _103  and  _104
REMARK   46  A    between atoms: _104  and  _105
REMARK   47  A    between atoms: _108  and  _110
REMARK   48  A    between atoms: _110  and  _111
REMARK   49  A    between atoms: _110  and  _113
REMARK   50  A    between atoms: _113  and  _114
REMARK   51  A    between atoms: _120  and  _122
REMARK   52  A    between atoms: _122  and  _123
REMARK   53  A    between atoms: _122  and  _125
REMARK   54  A    between atoms: _125  and  _126
REMARK   55  A    between atoms: _128  and  _130
REMARK   56  A    between atoms: _130  and  _131
REMARK   57  A    between atoms: _133  and  _135
REMARK   58  A    between atoms: _135  and  _136
REMARK   59  A    between atoms: _135  and  _138
REMARK   60  A    between atoms: _138  and  _139
REMARK   61  A    between atoms: _143  and  _144
REMARK   62  A    between atoms: _149  and  _151
REMARK   63  A    between atoms: _151  and  _152
REMARK   64  A    between atoms: _155  and  _157
REMARK   65  A    between atoms: _157  and  _158
REMARK   66  A    between atoms: _160  and  _162
REMARK   67  A    between atoms: _162  and  _163
REMARK   68  A    between atoms: _162  and  _165
REMARK   69  A    between atoms: _165  and  _166
REMARK   70  A    between atoms: _169  and  _171
REMARK   71  A    between atoms: _171  and  _172
REMARK   72  A    between atoms: _171  and  _174
REMARK   73  A    between atoms: _174  and  _175
REMARK   74  A    between atoms: _180  and  _182
REMARK   75  A    between atoms: _182  and  _183
REMARK   76  A    between atoms: _182  and  _185
REMARK   77  A    between atoms: _185  and  _186
REMARK   78  A    between atoms: _190  and  _191
REMARK   79  A    between atoms: _196  and  _198
REMARK   80  A    between atoms: _198  and  _199
REMARK   81  A    between atoms: _198  and  _201
REMARK   82  A    between atoms: _201  and  _202
REMARK   83  A    between atoms: _207  and  _209
REMARK   84  A    between atoms: _209  and  _210
REMARK   85  A    between atoms: _209  and  _212
REMARK   86  A    between atoms: _212  and  _213
REMARK   87  A    between atoms: _218  and  _219
REMARK   88  A    between atoms: _221  and  _223
REMARK   89  A    between atoms: _223  and  _224
REMARK   90  A    between atoms: _223  and  _226
REMARK   91  A    between atoms: _226  and  _227
REMARK   92  A    between atoms: _230  and  _232
REMARK   93  A    between atoms: _232  and  _233
REMARK   94  A    between atoms: _232  and  _235
REMARK   95  A    between atoms: _235  and  _236
REMARK   96  A    between atoms: _236  and  _237
REMARK   97  A    between atoms: _237  and  _238
REMARK   98  A    between atoms: _247  and  _249
REMARK   99  A    between atoms: _249  and  _250
REMARK  100  A    between atoms: _249  and  _252
REMARK  101  A    between atoms: _252  and  _253
REMARK  102  A    between atoms: _253  and  _254
REMARK  103  A    between atoms: _254  and  _255
REMARK  104  A    between atoms: _255  and  _256
REMARK  105  A    between atoms: _260  and  _262
REMARK  106  A    between atoms: _262  and  _263
REMARK  107  A    between atoms: _262  and  _265
REMARK  108  A    between atoms: _265  and  _266
REMARK  109  A    between atoms: _271  and  _273
REMARK  110  A    between atoms: _273  and  _274
REMARK  111  A    between atoms: _273  and  _276
REMARK  112  A    between atoms: _279  and  _281
REMARK  113  A    between atoms: _281  and  _282
REMARK  114  A    between atoms: _281  and  _284
REMARK  115  A    between atoms: _284  and  _285
REMARK  116  A    between atoms: _288  and  _290
REMARK  117  A    between atoms: _290  and  _291
REMARK  118  A    between atoms: _290  and  _293
REMARK  119  A    between atoms: _296  and  _298
REMARK  120  A    between atoms: _298  and  _299
REMARK  121  A    between atoms: _298  and  _301
REMARK  122  A    between atoms: _301  and  _302
REMARK  123  A    between atoms: _305  and  _307
REMARK  124  A    between atoms: _307  and  _308
REMARK  125  A    between atoms: _311  and  _313
REMARK  126  A    between atoms: _313  and  _314
REMARK  127  A    between atoms: _313  and  _316
REMARK  128  A    between atoms: _319  and  _321
REMARK  129  A    between atoms: _321  and  _322
REMARK  130  A    between atoms: _325  and  _327
REMARK  131  A    between atoms: _327  and  _328
REMARK  132  A    between atoms: _331  and  _333
REMARK  133  A    between atoms: _333  and  _334
REMARK  134  A    between atoms: _333  and  _336
REMARK  135  A    between atoms: _336  and  _337
REMARK  136  A    between atoms: _342  and  _343
REMARK  137  A    between atoms: _345  and  _347
REMARK  138  A    between atoms: _347  and  _348
REMARK  139  A    between atoms: _347  and  _350
REMARK  140  A    between atoms: _350  and  _351
REMARK  141  A    between atoms: _351  and  _352
REMARK  142  A    between atoms: _352  and  _353
REMARK  143  A    between atoms: _353  and  _354
REMARK  144  A    between atoms: _358  and  _360
REMARK  145  A    between atoms: _360  and  _361
REMARK  146  A    between atoms: _360  and  _363
REMARK  147  A    between atoms: _363  and  _364
REMARK  148  A    between atoms: _366  and  _368
REMARK  149  A    between atoms: _368  and  _369
REMARK  150  A    between atoms: _368  and  _371
REMARK  151  A    between atoms: _371  and  _372
REMARK  152  A    between atoms: _378  and  _380
REMARK  153  A    between atoms: _380  and  _381
REMARK  154  A    between atoms: _380  and  _383
REMARK  155  A    between atoms: _383  and  _384
REMARK  156  A    between atoms: _387  and  _389
REMARK  157  A    between atoms: _389  and  _390
REMARK  158  A    between atoms: _389  and  _392
REMARK  159  A    between atoms: _395  and  _397
REMARK  160  A    between atoms: _397  and  _398
REMARK  161  A    between atoms: _397  and  _400
REMARK  162  A    between atoms: _400  and  _401
REMARK  163  A    between atoms: _401  and  _402
REMARK  164  A    between atoms: _407  and  _409
REMARK  165  A    between atoms: _409  and  _410
REMARK  166  A    between atoms: _409  and  _412
REMARK  167  A    between atoms: _415  and  _417
REMARK  168  A    between atoms: _417  and  _418
REMARK  169  A    between atoms: _420  and  _422
REMARK  170  A    between atoms: _422  and  _423
REMARK  171  A    between atoms: _422  and  _425
REMARK  172  A    between atoms: _425  and  _426
REMARK  173  A    between atoms: _429  and  _431
REMARK  174  A    between atoms: _431  and  _432
REMARK  175  A    between atoms: _431  and  _434
REMARK  176  A    between atoms: _434  and  _435
REMARK  177  A    between atoms: _440  and  _442
REMARK  178  A    between atoms: _442  and  _443
REMARK  179  A    between atoms: _446  and  _448
REMARK  180  A    between atoms: _448  and  _449
REMARK  181  A    between atoms: _448  and  _451
REMARK  182  A    between atoms: _451  and  _452
REMARK  183  A    between atoms: _457  and  _459
REMARK  184  A    between atoms: _459  and  _460
REMARK  185  A    between atoms: _459  and  _462
REMARK  186  A    between atoms: _462  and  _463
REMARK  187  A    between atoms: _473  and  _475
REMARK  188  A    between atoms: _475  and  _476
REMARK  189  A    between atoms: _475  and  _478
REMARK  190  A    between atoms: _478  and  _479
REMARK  191  A    between atoms: _482  and  _484
REMARK  192  A    between atoms: _484  and  _485
REMARK  193  A    between atoms: _488  and  _490
REMARK  194  A    between atoms: _490  and  _491
REMARK  195  A    between atoms: _490  and  _493
REMARK  196  A    between atoms: _493  and  _494
REMARK  197  A    between atoms: _496  and  _498
REMARK  198  A    between atoms: _498  and  _499
REMARK  199  A    between atoms: _498  and  _501
REMARK  200  A    between atoms: _501  and  _502
REMARK  201  A    between atoms: _502  and  _503
REMARK  202  A    between atoms: _506  and  _508
REMARK  203  A    between atoms: _508  and  _509
REMARK  204  A    between atoms: _508  and  _511
REMARK  205  A    between atoms: _511  and  _512
REMARK  206  A    between atoms: _512  and  _513
REMARK  207  A    between atoms: _516  and  _518
REMARK  208  A    between atoms: _518  and  _519
REMARK  209  A    between atoms: _518  and  _521
REMARK  210  A    between atoms: _521  and  _522
REMARK  211  A    between atoms: _522  and  _523
REMARK  212  A    between atoms: _523  and  _524
REMARK  213  A    between atoms: _533  and  _535
REMARK  214  A    between atoms: _535  and  _536
REMARK  215  A    between atoms: _539  and  _541
REMARK  216  A    between atoms: _541  and  _542
REMARK  217  A    between atoms: _541  and  _544
REMARK  218  A    between atoms: _544  and  _545
REMARK  219  A    between atoms: _545  and  _546
REMARK  220  A    between atoms: _549  and  _551
REMARK  221  A    between atoms: _551  and  _552
REMARK  222  A    between atoms: _554  and  _556
REMARK  223  A    between atoms: _556  and  _557
REMARK  224  A    between atoms: _556  and  _559
REMARK  225  A    between atoms: _559  and  _560
REMARK  226  A    between atoms: _565  and  _567
REMARK  227  A    between atoms: _567  and  _568
REMARK  228  A    between atoms: _567  and  _570
REMARK  229  A    between atoms: _570  and  _571
REMARK  230  A    between atoms: _576  and  _578
REMARK  231  A    between atoms: _578  and  _579
REMARK  232  A    between atoms: _578  and  _581
REMARK  233  A    between atoms: _581  and  _582
REMARK  234  A    between atoms: _582  and  _583
REMARK  235  A    between atoms: _585  and  _587
REMARK  236  A    between atoms: _587  and  _588
REMARK  237  A    between atoms: _587  and  _590
REMARK  238  A    between atoms: _590  and  _591
REMARK  239  A    between atoms: _591  and  _592
REMARK  240  A    between atoms: _597  and  _599
REMARK  241  A    between atoms: _599  and  _600
REMARK  242  A    between atoms: _603  and  _605
REMARK  243  A    between atoms: _605  and  _606
REMARK  244  A    between atoms: _605  and  _608
REMARK  245  A    between atoms: _608  and  _609
REMARK  246  A    between atoms: _614  and  _616
REMARK  247  A    between atoms: _616  and  _617
REMARK  248  A    between atoms: _616  and  _619
REMARK  249  A    between atoms: _619  and  _620
REMARK  250  A    between atoms: _620  and  _621
REMARK  251  A    between atoms: _623  and  _625
REMARK  252  A    between atoms: _625  and  _626
REMARK  253  A    between atoms: _625  and  _628
REMARK  254  A    between atoms: _628  and  _629
REMARK  255  A    between atoms: _629  and  _630
REMARK  256  A    between atoms: _630  and  _631
REMARK  257  A    between atoms: _640  and  _642
REMARK  258  A    between atoms: _642  and  _643
REMARK  259  A    between atoms: _642  and  _645
REMARK  260  A    between atoms: _645  and  _646
REMARK  261  A    between atoms: _646  and  _647
REMARK  262  A    between atoms: _647  and  _648
REMARK  263  A    between atoms: _648  and  _649
REMARK  264  A    between atoms: _653  and  _655
REMARK  265  A    between atoms: _655  and  _656
REMARK  266  A    between atoms: _655  and  _658
REMARK  267  A    between atoms: _658  and  _659
REMARK  268  A    between atoms: _661  and  _663
REMARK  269  A    between atoms: _663  and  _664
REMARK  270  A    between atoms: _663  and  _666
REMARK  271  A    between atoms: _666  and  _667
REMARK  272  A    between atoms: _667  and  _668
REMARK  273  A    between atoms: _668  and  _669
REMARK  274  A    between atoms: _678  and  _680
REMARK  275  A    between atoms: _680  and  _681
REMARK  276  A    between atoms: _680  and  _683
REMARK  277  A    between atoms: _683  and  _684
REMARK  278  A    between atoms: _684  and  _685
REMARK  279  A    between atoms: _685  and  _686
REMARK  280  A    between atoms: _686  and  _687
REMARK  281  A    between atoms: _691  and  _693
REMARK  282  A    between atoms: _693  and  _694
REMARK  283  A    between atoms: _693  and  _696
REMARK  284  A    between atoms: _696  and  _697
REMARK  285  A    between atoms: _700  and  _702
REMARK  286  A    between atoms: _702  and  _703
REMARK  287  A    between atoms: _702  and  _705
REMARK  288  A    between atoms: _705  and  _706
REMARK                            x       y       z     vdW  Elec       q    Type
REMARK                         _______ _______ _______ _____ _____    ______ ____
ROOT
ATOM      1  O   HOH     1      15.105  11.031  52.063  0.00  0.00    +0.000 OA
ENDROOT
TORSDOF 0
REMARK  Name = ../refined-set-2016/3t6b/3t6b_pocket.pdb
REMARK  288 active torsions:
REMARK  status: ('A' for Active; 'I' for Inactive)
REMARK    1  A    between atoms: _1  and  _3
REMARK    2  A    between atoms: _3  and  _4
REMARK    3  A    between atoms: _6  and  _8
REMARK    4  A    between atoms: _8  and  _9
REMARK    5  A    between atoms: _8  and  _11
REMARK    6  A    between atoms: _11  and  _12
REMARK    7  A    between atoms: _14  and  _16
REMARK    8  A    between atoms: _16  and  _17
REMARK    9  A    between atoms: _16  and  _19
REMARK   10  A    between atoms: _19  and  _20
REMARK   11  A    between atoms: _23  and  _25
REMARK   12  A    between atoms: _25  and  _26
REMARK   13  A    between atoms: _25  and  _28
REMARK   14  A    between atoms: _28  and  _29
REMARK   15  A    between atoms: _31  and  _33
REMARK   16  A    between atoms: _33  and  _34
REMARK   17  A    between atoms: _33  and  _36
REMARK   18  A    between atoms: _36  and  _37
REMARK   19  A    between atoms: _43  and  _45
REMARK   20  A    between atoms: _45  and  _46
REMARK   21  A    between atoms: _45  and  _48
REMARK   22  A    between atoms: _48  and  _49
REMARK   23  A    between atoms: _54  and  _55
REMARK   24  A    between atoms: _57  and  _59
REMARK   25  A    between atoms: _59  and  _60
REMARK   26  A    between atoms: _59  and  _62
REMARK   27  A    between atoms: _62  and  _63
REMARK   28  A    between atoms: _66  and  _68
REMARK   29  A    between atoms: _68  and  _69
REMARK   30  A    between atoms: _68  and  _71
REMARK   31  A    between atoms: _71  and  _72
REMARK   32  A    between atoms: _72  and  _73
REMARK   33  A    between atoms: _76  and  _78
REMARK   34  A    between atoms: _78  and  _79
REMARK   35  A    between atoms: _78  and  _81
REMARK   36  A    between atoms: _81  and  _82
REMARK   37  A    between atoms: _84  and  _86
REMARK   38  A    between atoms: _86  and  _87
REMARK   39  A    between atoms: _86  and  _89
REMARK   40  A    between atoms: _89  and  _90
REMARK   41  A    between atoms: _95  and  _96
REMARK   42  A    between atoms: _98  and  _100
REMARK   43  A    between atoms: _100  and  _101
REMARK   44  A    between atoms: _100  and  _103
REMARK   45  A    between atoms: _103  and  _104
REMARK   46  A    between atoms: _104  and  _105
REMARK   47  A    between atoms: _108  and  _110
REMARK   48  A    between atoms: _110  and  _111
REMARK   49  A    between atoms: _110  and  _113
REMARK   50  A    between atoms: _113  and  _114
REMARK   51  A    between atoms: _120  and  _122
REMARK   52  A    between atoms: _122  and  _123
REMARK   53  A    between atoms: _122  and  _125
REMARK   54  A    between atoms: _125  and  _126
REMARK   55  A    between atoms: _128  and  _130
REMARK   56  A    between atoms: _130  and  _131
REMARK   57  A    between atoms: _133  and  _135
REMARK   58  A    between atoms: _135  and  _136
REMARK   59  A    between atoms: _135  and  _138
REMARK   60  A    between atoms: _138  and  _139
REMARK   61  A    between atoms: _143  and  _144
REMARK   62  A    between atoms: _149  and  _151
REMARK   63  A    between atoms: _151  and  _152
REMARK   64  A    between atoms: _155  and  _157
REMARK   65  A    between atoms: _157  and  _158
REMARK   66  A    between atoms: _160  and  _162
REMARK   67  A    between atoms: _162  and  _163
REMARK   68  A    between atoms: _162  and  _165
REMARK   69  A    between atoms: _165  and  _166
REMARK   70  A    between atoms: _169  and  _171
REMARK   71  A    between atoms: _171  and  _172
REMARK   72  A    between atoms: _171  and  _174
REMARK   73  A    between atoms: _174  and  _175
REMARK   74  A    between atoms: _180  and  _182
REMARK   75  A    between atoms: _182  and  _183
REMARK   76  A    between atoms: _182  and  _185
REMARK   77  A    between atoms: _185  and  _186
REMARK   78  A    between atoms: _190  and  _191
REMARK   79  A    between atoms: _196  and  _198
REMARK   80  A    between atoms: _198  and  _199
REMARK   81  A    between atoms: _198  and  _201
REMARK   82  A    between atoms: _201  and  _202
REMARK   83  A    between atoms: _207  and  _209
REMARK   84  A    between atoms: _209  and  _210
REMARK   85  A    between atoms: _209  and  _212
REMARK   86  A    between atoms: _212  and  _213
REMARK   87  A    between atoms: _218  and  _219
REMARK   88  A    between atoms: _221  and  _223
REMARK   89  A    between atoms: _223  and  _224
REMARK   90  A    between atoms: _223  and  _226
REMARK   91  A    between atoms: _226  and  _227
REMARK   92  A    between atoms: _230  and  _232
REMARK   93  A    between atoms: _232  and  _233
REMARK   94  A    between atoms: _232  and  _235
REMARK   95  A    between atoms: _235  and  _236
REMARK   96  A    between atoms: _236  and  _237
REMARK   97  A    between atoms: _237  and  _238
REMARK   98  A    between atoms: _247  and  _249
REMARK   99  A    between atoms: _249  and  _250
REMARK  100  A    between atoms: _249  and  _252
REMARK  101  A    between atoms: _252  and  _253
REMARK  102  A    between atoms: _253  and  _254
REMARK  103  A    between atoms: _254  and  _255
REMARK  104  A    between atoms: _255  and  _256
REMARK  105  A    between atoms: _260  and  _262
REMARK  106  A    between atoms: _262  and  _263
REMARK  107  A    between atoms: _262  and  _265
REMARK  108  A    between atoms: _265  and  _266
REMARK  109  A    between atoms: _271  and  _273
REMARK  110  A    between atoms: _273  and  _274
REMARK  111  A    between atoms: _273  and  _276
REMARK  112  A    between atoms: _279  and  _281
REMARK  113  A    between atoms: _281  and  _282
REMARK  114  A    between atoms: _281  and  _284
REMARK  115  A    between atoms: _284  and  _285
REMARK  116  A    between atoms: _288  and  _290
REMARK  117  A    between atoms: _290  and  _291
REMARK  118  A    between atoms: _290  and  _293
REMARK  119  A    between atoms: _296  and  _298
REMARK  120  A    between atoms: _298  and  _299
REMARK  121  A    between atoms: _298  and  _301
REMARK  122  A    between atoms: _301  and  _302
REMARK  123  A    between atoms: _305  and  _307
REMARK  124  A    between atoms: _307  and  _308
REMARK  125  A    between atoms: _311  and  _313
REMARK  126  A    between atoms: _313  and  _314
REMARK  127  A    between atoms: _313  and  _316
REMARK  128  A    between atoms: _319  and  _321
REMARK  129  A    between atoms: _321  and  _322
REMARK  130  A    between atoms: _325  and  _327
REMARK  131  A    between atoms: _327  and  _328
REMARK  132  A    between atoms: _331  and  _333
REMARK  133  A    between atoms: _333  and  _334
REMARK  134  A    between atoms: _333  and  _336
REMARK  135  A    between atoms: _336  and  _337
REMARK  136  A    between atoms: _342  and  _343
REMARK  137  A    between atoms: _345  and  _347
REMARK  138  A    between atoms: _347  and  _348
REMARK  139  A    between atoms: _347  and  _350
REMARK  140  A    between atoms: _350  and  _351
REMARK  141  A    between atoms: _351  and  _352
REMARK  142  A    between atoms: _352  and  _353
REMARK  143  A    between atoms: _353  and  _354
REMARK  144  A    between atoms: _358  and  _360
REMARK  145  A    between atoms: _360  and  _361
REMARK  146  A    between atoms: _360  and  _363
REMARK  147  A    between atoms: _363  and  _364
REMARK  148  A    between atoms: _366  and  _368
REMARK  149  A    between atoms: _368  and  _369
REMARK  150  A    between atoms: _368  and  _371
REMARK  151  A    between atoms: _371  and  _372
REMARK  152  A    between atoms: _378  and  _380
REMARK  153  A    between atoms: _380  and  _381
REMARK  154  A    between atoms: _380  and  _383
REMARK  155  A    between atoms: _383  and  _384
REMARK  156  A    between atoms: _387  and  _389
REMARK  157  A    between atoms: _389  and  _390
REMARK  158  A    between atoms: _389  and  _392
REMARK  159  A    between atoms: _395  and  _397
REMARK  160  A    between atoms: _397  and  _398
REMARK  161  A    between atoms: _397  and  _400
REMARK  162  A    between atoms: _400  and  _401
REMARK  163  A    between atoms: _401  and  _402
REMARK  164  A    between atoms: _407  and  _409
REMARK  165  A    between atoms: _409  and  _410
REMARK  166  A    between atoms: _409  and  _412
REMARK  167  A    between atoms: _415  and  _417
REMARK  168  A    between atoms: _417  and  _418
REMARK  169  A    between atoms: _420  and  _422
REMARK  170  A    between atoms: _422  and  _423
REMARK  171  A    between atoms: _422  and  _425
REMARK  172  A    between atoms: _425  and  _426
REMARK  173  A    between atoms: _429  and  _431
REMARK  174  A    between atoms: _431  and  _432
REMARK  175  A    between atoms: _431  and  _434
REMARK  176  A    between atoms: _434  and  _435
REMARK  177  A    between atoms: _440  and  _442
REMARK  178  A    between atoms: _442  and  _443
REMARK  179  A    between atoms: _446  and  _448
REMARK  180  A    between atoms: _448  and  _449
REMARK  181  A    between atoms: _448  and  _451
REMARK  182  A    between atoms: _451  and  _452
REMARK  183  A    between atoms: _457  and  _459
REMARK  184  A    between atoms: _459  and  _460
REMARK  185  A    between atoms: _459  and  _462
REMARK  186  A    between atoms: _462  and  _463
REMARK  187  A    between atoms: _473  and  _475
REMARK  188  A    between atoms: _475  and  _476
REMARK  189  A    between atoms: _475  and  _478
REMARK  190  A    between atoms: _478  and  _479
REMARK  191  A    between atoms: _482  and  _484
REMARK  192  A    between atoms: _484  and  _485
REMARK  193  A    between atoms: _488  and  _490
REMARK  194  A    between atoms: _490  and  _491
REMARK  195  A    between atoms: _490  and  _493
REMARK  196  A    between atoms: _493  and  _494
REMARK  197  A    between atoms: _496  and  _498
REMARK  198  A    between atoms: _498  and  _499
REMARK  199  A    between atoms: _498  and  _501
REMARK  200  A    between atoms: _501  and  _502
REMARK  201  A    between atoms: _502  and  _503
REMARK  202  A    between atoms: _506  and  _508
REMARK  203  A    between atoms: _508  and  _509
REMARK  204  A    between atoms: _508  and  _511
REMARK  205  A    between atoms: _511  and  _512
REMARK  206  A    between atoms: _512  and  _513
REMARK  207  A    between atoms: _516  and  _518
REMARK  208  A    between atoms: _518  and  _519
REMARK  209  A    between atoms: _518  and  _521
REMARK  210  A    between atoms: _521  and  _522
REMARK  211  A    between atoms: _522  and  _523
REMARK  212  A    between atoms: _523  and  _524
REMARK  213  A    between atoms: _533  and  _535
REMARK  214  A    between atoms: _535  and  _536
REMARK  215  A    between atoms: _539  and  _541
REMARK  216  A    between atoms: _541  and  _542
REMARK  217  A    between atoms: _541  and  _544
REMARK  218  A    between atoms: _544  and  _545
REMARK  219  A    between atoms: _545  and  _546
REMARK  220  A    between atoms: _549  and  _551
REMARK  221  A    between atoms: _551  and  _552
REMARK  222  A    between atoms: _554  and  _556
REMARK  223  A    between atoms: _556  and  _557
REMARK  224  A    between atoms: _556  and  _559
REMARK  225  A    between atoms: _559  and  _560
REMARK  226  A    between atoms: _565  and  _567
REMARK  227  A    between atoms: _567  and  _568
REMARK  228  A    between atoms: _567  and  _570
REMARK  229  A    between atoms: _570  and  _571
REMARK  230  A    between atoms: _576  and  _578
REMARK  231  A    between atoms: _578  and  _579
REMARK  232  A    between atoms: _578  and  _581
REMARK  233  A    between atoms: _581  and  _582
REMARK  234  A    between atoms: _582  and  _583
REMARK  235  A    between atoms: _585  and  _587
REMARK  236  A    between atoms: _587  and  _588
REMARK  237  A    between atoms: _587  and  _590
REMARK  238  A    between atoms: _590  and  _591
REMARK  239  A    between atoms: _591  and  _592
REMARK  240  A    between atoms: _597  and  _599
REMARK  241  A    between atoms: _599  and  _600
REMARK  242  A    between atoms: _603  and  _605
REMARK  243  A    between atoms: _605  and  _606
REMARK  244  A    between atoms: _605  and  _608
REMARK  245  A    between atoms: _608  and  _609
REMARK  246  A    between atoms: _614  and  _616
REMARK  247  A    between atoms: _616  and  _617
REMARK  248  A    between atoms: _616  and  _619
REMARK  249  A    between atoms: _619  and  _620
REMARK  250  A    between atoms: _620  and  _621
REMARK  251  A    between atoms: _623  and  _625
REMARK  252  A    between atoms: _625  and  _626
REMARK  253  A    between atoms: _625  and  _628
REMARK  254  A    between atoms: _628  and  _629
REMARK  255  A    between atoms: _629  and  _630
REMARK  256  A    between atoms: _630  and  _631
REMARK  257  A    between atoms: _640  and  _642
REMARK  258  A    between atoms: _642  and  _643
REMARK  259  A    between atoms: _642  and  _645
REMARK  260  A    between atoms: _645  and  _646
REMARK  261  A    between atoms: _646  and  _647
REMARK  262  A    between atoms: _647  and  _648
REMARK  263  A    between atoms: _648  and  _649
REMARK  264  A    between atoms: _653  and  _655
REMARK  265  A    between atoms: _655  and  _656
REMARK  266  A    between atoms: _655  and  _658
REMARK  267  A    between atoms: _658  and  _659
REMARK  268  A    between atoms: _661  and  _663
REMARK  269  A    between atoms: _663  and  _664
REMARK  270  A    between atoms: _663  and  _666
REMARK  271  A    between atoms: _666  and  _667
REMARK  272  A    between atoms: _667  and  _668
REMARK  273  A    between atoms: _668  and  _669
REMARK  274  A    between atoms: _678  and  _680
REMARK  275  A    between atoms: _680  and  _681
REMARK  276  A    between atoms: _680  and  _683
REMARK  277  A    between atoms: _683  and  _684
REMARK  278  A    between atoms: _684  and  _685
REMARK  279  A    between atoms: _685  and  _686
REMARK  280  A    between atoms: _686  and  _687
REMARK  281  A    between atoms: _691  and  _693
REMARK  282  A    between atoms: _693  and  _694
REMARK  283  A    between atoms: _693  and  _696
REMARK  284  A    between atoms: _696  and  _697
REMARK  285  A    between atoms: _700  and  _702
REMARK  286  A    between atoms: _702  and  _703
REMARK  287  A    between atoms: _702  and  _705
REMARK  288  A    between atoms: _705  and  _706
REMARK                            x       y       z     vdW  Elec       q    Type
REMARK                         _______ _______ _______ _____ _____    ______ ____
ROOT
ATOM      1  O   HOH     1      19.810  27.569  46.441  0.00  0.00    +0.000 OA
ENDROOT
TORSDOF 0
REMARK  Name = ../refined-set-2016/3t6b/3t6b_pocket.pdb
REMARK  288 active torsions:
REMARK  status: ('A' for Active; 'I' for Inactive)
REMARK    1  A    between atoms: _1  and  _3
REMARK    2  A    between atoms: _3  and  _4
REMARK    3  A    between atoms: _6  and  _8
REMARK    4  A    between atoms: _8  and  _9
REMARK    5  A    between atoms: _8  and  _11
REMARK    6  A    between atoms: _11  and  _12
REMARK    7  A    between atoms: _14  and  _16
REMARK    8  A    between atoms: _16  and  _17
REMARK    9  A    between atoms: _16  and  _19
REMARK   10  A    between atoms: _19  and  _20
REMARK   11  A    between atoms: _23  and  _25
REMARK   12  A    between atoms: _25  and  _26
REMARK   13  A    between atoms: _25  and  _28
REMARK   14  A    between atoms: _28  and  _29
REMARK   15  A    between atoms: _31  and  _33
REMARK   16  A    between atoms: _33  and  _34
REMARK   17  A    between atoms: _33  and  _36
REMARK   18  A    between atoms: _36  and  _37
REMARK   19  A    between atoms: _43  and  _45
REMARK   20  A    between atoms: _45  and  _46
REMARK   21  A    between atoms: _45  and  _48
REMARK   22  A    between atoms: _48  and  _49
REMARK   23  A    between atoms: _54  and  _55
REMARK   24  A    between atoms: _57  and  _59
REMARK   25  A    between atoms: _59  and  _60
REMARK   26  A    between atoms: _59  and  _62
REMARK   27  A    between atoms: _62  and  _63
REMARK   28  A    between atoms: _66  and  _68
REMARK   29  A    between atoms: _68  and  _69
REMARK   30  A    between atoms: _68  and  _71
REMARK   31  A    between atoms: _71  and  _72
REMARK   32  A    between atoms: _72  and  _73
REMARK   33  A    between atoms: _76  and  _78
REMARK   34  A    between atoms: _78  and  _79
REMARK   35  A    between atoms: _78  and  _81
REMARK   36  A    between atoms: _81  and  _82
REMARK   37  A    between atoms: _84  and  _86
REMARK   38  A    between atoms: _86  and  _87
REMARK   39  A    between atoms: _86  and  _89
REMARK   40  A    between atoms: _89  and  _90
REMARK   41  A    between atoms: _95  and  _96
REMARK   42  A    between atoms: _98  and  _100
REMARK   43  A    between atoms: _100  and  _101
REMARK   44  A    between atoms: _100  and  _103
REMARK   45  A    between atoms: _103  and  _104
REMARK   46  A    between atoms: _104  and  _105
REMARK   47  A    between atoms: _108  and  _110
REMARK   48  A    between atoms: _110  and  _111
REMARK   49  A    between atoms: _110  and  _113
REMARK   50  A    between atoms: _113  and  _114
REMARK   51  A    between atoms: _120  and  _122
REMARK   52  A    between atoms: _122  and  _123
REMARK   53  A    between atoms: _122  and  _125
REMARK   54  A    between atoms: _125  and  _126
REMARK   55  A    between atoms: _128  and  _130
REMARK   56  A    between atoms: _130  and  _131
REMARK   57  A    between atoms: _133  and  _135
REMARK   58  A    between atoms: _135  and  _136
REMARK   59  A    between atoms: _135  and  _138
REMARK   60  A    between atoms: _138  and  _139
REMARK   61  A    between atoms: _143  and  _144
REMARK   62  A    between atoms: _149  and  _151
REMARK   63  A    between atoms: _151  and  _152
REMARK   64  A    between atoms: _155  and  _157
REMARK   65  A    between atoms: _157  and  _158
REMARK   66  A    between atoms: _160  and  _162
REMARK   67  A    between atoms: _162  and  _163
REMARK   68  A    between atoms: _162  and  _165
REMARK   69  A    between atoms: _165  and  _166
REMARK   70  A    between atoms: _169  and  _171
REMARK   71  A    between atoms: _171  and  _172
REMARK   72  A    between atoms: _171  and  _174
REMARK   73  A    between atoms: _174  and  _175
REMARK   74  A    between atoms: _180  and  _182
REMARK   75  A    between atoms: _182  and  _183
REMARK   76  A    between atoms: _182  and  _185
REMARK   77  A    between atoms: _185  and  _186
REMARK   78  A    between atoms: _190  and  _191
REMARK   79  A    between atoms: _196  and  _198
REMARK   80  A    between atoms: _198  and  _199
REMARK   81  A    between atoms: _198  and  _201
REMARK   82  A    between atoms: _201  and  _202
REMARK   83  A    between atoms: _207  and  _209
REMARK   84  A    between atoms: _209  and  _210
REMARK   85  A    between atoms: _209  and  _212
REMARK   86  A    between atoms: _212  and  _213
REMARK   87  A    between atoms: _218  and  _219
REMARK   88  A    between atoms: _221  and  _223
REMARK   89  A    between atoms: _223  and  _224
REMARK   90  A    between atoms: _223  and  _226
REMARK   91  A    between atoms: _226  and  _227
REMARK   92  A    between atoms: _230  and  _232
REMARK   93  A    between atoms: _232  and  _233
REMARK   94  A    between atoms: _232  and  _235
REMARK   95  A    between atoms: _235  and  _236
REMARK   96  A    between atoms: _236  and  _237
REMARK   97  A    between atoms: _237  and  _238
REMARK   98  A    between atoms: _247  and  _249
REMARK   99  A    between atoms: _249  and  _250
REMARK  100  A    between atoms: _249  and  _252
REMARK  101  A    between atoms: _252  and  _253
REMARK  102  A    between atoms: _253  and  _254
REMARK  103  A    between atoms: _254  and  _255
REMARK  104  A    between atoms: _255  and  _256
REMARK  105  A    between atoms: _260  and  _262
REMARK  106  A    between atoms: _262  and  _263
REMARK  107  A    between atoms: _262  and  _265
REMARK  108  A    between atoms: _265  and  _266
REMARK  109  A    between atoms: _271  and  _273
REMARK  110  A    between atoms: _273  and  _274
REMARK  111  A    between atoms: _273  and  _276
REMARK  112  A    between atoms: _279  and  _281
REMARK  113  A    between atoms: _281  and  _282
REMARK  114  A    between atoms: _281  and  _284
REMARK  115  A    between atoms: _284  and  _285
REMARK  116  A    between atoms: _288  and  _290
REMARK  117  A    between atoms: _290  and  _291
REMARK  118  A    between atoms: _290  and  _293
REMARK  119  A    between atoms: _296  and  _298
REMARK  120  A    between atoms: _298  and  _299
REMARK  121  A    between atoms: _298  and  _301
REMARK  122  A    between atoms: _301  and  _302
REMARK  123  A    between atoms: _305  and  _307
REMARK  124  A    between atoms: _307  and  _308
REMARK  125  A    between atoms: _311  and  _313
REMARK  126  A    between atoms: _313  and  _314
REMARK  127  A    between atoms: _313  and  _316
REMARK  128  A    between atoms: _319  and  _321
REMARK  129  A    between atoms: _321  and  _322
REMARK  130  A    between atoms: _325  and  _327
REMARK  131  A    between atoms: _327  and  _328
REMARK  132  A    between atoms: _331  and  _333
REMARK  133  A    between atoms: _333  and  _334
REMARK  134  A    between atoms: _333  and  _336
REMARK  135  A    between atoms: _336  and  _337
REMARK  136  A    between atoms: _342  and  _343
REMARK  137  A    between atoms: _345  and  _347
REMARK  138  A    between atoms: _347  and  _348
REMARK  139  A    between atoms: _347  and  _350
REMARK  140  A    between atoms: _350  and  _351
REMARK  141  A    between atoms: _351  and  _352
REMARK  142  A    between atoms: _352  and  _353
REMARK  143  A    between atoms: _353  and  _354
REMARK  144  A    between atoms: _358  and  _360
REMARK  145  A    between atoms: _360  and  _361
REMARK  146  A    between atoms: _360  and  _363
REMARK  147  A    between atoms: _363  and  _364
REMARK  148  A    between atoms: _366  and  _368
REMARK  149  A    between atoms: _368  and  _369
REMARK  150  A    between atoms: _368  and  _371
REMARK  151  A    between atoms: _371  and  _372
REMARK  152  A    between atoms: _378  and  _380
REMARK  153  A    between atoms: _380  and  _381
REMARK  154  A    between atoms: _380  and  _383
REMARK  155  A    between atoms: _383  and  _384
REMARK  156  A    between atoms: _387  and  _389
REMARK  157  A    between atoms: _389  and  _390
REMARK  158  A    between atoms: _389  and  _392
REMARK  159  A    between atoms: _395  and  _397
REMARK  160  A    between atoms: _397  and  _398
REMARK  161  A    between atoms: _397  and  _400
REMARK  162  A    between atoms: _400  and  _401
REMARK  163  A    between atoms: _401  and  _402
REMARK  164  A    between atoms: _407  and  _409
REMARK  165  A    between atoms: _409  and  _410
REMARK  166  A    between atoms: _409  and  _412
REMARK  167  A    between atoms: _415  and  _417
REMARK  168  A    between atoms: _417  and  _418
REMARK  169  A    between atoms: _420  and  _422
REMARK  170  A    between atoms: _422  and  _423
REMARK  171  A    between atoms: _422  and  _425
REMARK  172  A    between atoms: _425  and  _426
REMARK  173  A    between atoms: _429  and  _431
REMARK  174  A    between atoms: _431  and  _432
REMARK  175  A    between atoms: _431  and  _434
REMARK  176  A    between atoms: _434  and  _435
REMARK  177  A    between atoms: _440  and  _442
REMARK  178  A    between atoms: _442  and  _443
REMARK  179  A    between atoms: _446  and  _448
REMARK  180  A    between atoms: _448  and  _449
REMARK  181  A    between atoms: _448  and  _451
REMARK  182  A    between atoms: _451  and  _452
REMARK  183  A    between atoms: _457  and  _459
REMARK  184  A    between atoms: _459  and  _460
REMARK  185  A    between atoms: _459  and  _462
REMARK  186  A    between atoms: _462  and  _463
REMARK  187  A    between atoms: _473  and  _475
REMARK  188  A    between atoms: _475  and  _476
REMARK  189  A    between atoms: _475  and  _478
REMARK  190  A    between atoms: _478  and  _479
REMARK  191  A    between atoms: _482  and  _484
REMARK  192  A    between atoms: _484  and  _485
REMARK  193  A    between atoms: _488  and  _490
REMARK  194  A    between atoms: _490  and  _491
REMARK  195  A    between atoms: _490  and  _493
REMARK  196  A    between atoms: _493  and  _494
REMARK  197  A    between atoms: _496  and  _498
REMARK  198  A    between atoms: _498  and  _499
REMARK  199  A    between atoms: _498  and  _501
REMARK  200  A    between atoms: _501  and  _502
REMARK  201  A    between atoms: _502  and  _503
REMARK  202  A    between atoms: _506  and  _508
REMARK  203  A    between atoms: _508  and  _509
REMARK  204  A    between atoms: _508  and  _511
REMARK  205  A    between atoms: _511  and  _512
REMARK  206  A    between atoms: _512  and  _513
REMARK  207  A    between atoms: _516  and  _518
REMARK  208  A    between atoms: _518  and  _519
REMARK  209  A    between atoms: _518  and  _521
REMARK  210  A    between atoms: _521  and  _522
REMARK  211  A    between atoms: _522  and  _523
REMARK  212  A    between atoms: _523  and  _524
REMARK  213  A    between atoms: _533  and  _535
REMARK  214  A    between atoms: _535  and  _536
REMARK  215  A    between atoms: _539  and  _541
REMARK  216  A    between atoms: _541  and  _542
REMARK  217  A    between atoms: _541  and  _544
REMARK  218  A    between atoms: _544  and  _545
REMARK  219  A    between atoms: _545  and  _546
REMARK  220  A    between atoms: _549  and  _551
REMARK  221  A    between atoms: _551  and  _552
REMARK  222  A    between atoms: _554  and  _556
REMARK  223  A    between atoms: _556  and  _557
REMARK  224  A    between atoms: _556  and  _559
REMARK  225  A    between atoms: _559  and  _560
REMARK  226  A    between atoms: _565  and  _567
REMARK  227  A    between atoms: _567  and  _568
REMARK  228  A    between atoms: _567  and  _570
REMARK  229  A    between atoms: _570  and  _571
REMARK  230  A    between atoms: _576  and  _578
REMARK  231  A    between atoms: _578  and  _579
REMARK  232  A    between atoms: _578  and  _581
REMARK  233  A    between atoms: _581  and  _582
REMARK  234  A    between atoms: _582  and  _583
REMARK  235  A    between atoms: _585  and  _587
REMARK  236  A    between atoms: _587  and  _588
REMARK  237  A    between atoms: _587  and  _590
REMARK  238  A    between atoms: _590  and  _591
REMARK  239  A    between atoms: _591  and  _592
REMARK  240  A    between atoms: _597  and  _599
REMARK  241  A    between atoms: _599  and  _600
REMARK  242  A    between atoms: _603  and  _605
REMARK  243  A    between atoms: _605  and  _606
REMARK  244  A    between atoms: _605  and  _608
REMARK  245  A    between atoms: _608  and  _609
REMARK  246  A    between atoms: _614  and  _616
REMARK  247  A    between atoms: _616  and  _617
REMARK  248  A    between atoms: _616  and  _619
REMARK  249  A    between atoms: _619  and  _620
REMARK  250  A    between atoms: _620  and  _621
REMARK  251  A    between atoms: _623  and  _625
REMARK  252  A    between atoms: _625  and  _626
REMARK  253  A    between atoms: _625  and  _628
REMARK  254  A    between atoms: _628  and  _629
REMARK  255  A    between atoms: _629  and  _630
REMARK  256  A    between atoms: _630  and  _631
REMARK  257  A    between atoms: _640  and  _642
REMARK  258  A    between atoms: _642  and  _643
REMARK  259  A    between atoms: _642  and  _645
REMARK  260  A    between atoms: _645  and  _646
REMARK  261  A    between atoms: _646  and  _647
REMARK  262  A    between atoms: _647  and  _648
REMARK  263  A    between atoms: _648  and  _649
REMARK  264  A    between atoms: _653  and  _655
REMARK  265  A    between atoms: _655  and  _656
REMARK  266  A    between atoms: _655  and  _658
REMARK  267  A    between atoms: _658  and  _659
REMARK  268  A    between atoms: _661  and  _663
REMARK  269  A    between atoms: _663  and  _664
REMARK  270  A    between atoms: _663  and  _666
REMARK  271  A    between atoms: _666  and  _667
REMARK  272  A    between atoms: _667  and  _668
REMARK  273  A    between atoms: _668  and  _669
REMARK  274  A    between atoms: _678  and  _680
REMARK  275  A    between atoms: _680  and  _681
REMARK  276  A    between atoms: _680  and  _683
REMARK  277  A    between atoms: _683  and  _684
REMARK  278  A    between atoms: _684  and  _685
REMARK  279  A    between atoms: _685  and  _686
REMARK  280  A    between atoms: _686  and  _687
REMARK  281  A    between atoms: _691  and  _693
REMARK  282  A    between atoms: _693  and  _694
REMARK  283  A    between atoms: _693  and  _696
REMARK  284  A    between atoms: _696  and  _697
REMARK  285  A    between atoms: _700  and  _702
REMARK  286  A    between atoms: _702  and  _703
REMARK  287  A    between atoms: _702  and  _705
REMARK  288  A    between atoms: _705  and  _706
REMARK                            x       y       z     vdW  Elec       q    Type
REMARK                         _______ _______ _______ _____ _____    ______ ____
ROOT
ATOM      1  O   HOH     1      19.145  28.380  50.037  0.00  0.00    +0.000 OA
ENDROOT
TORSDOF 0
