REMARK  Name = ../refined-set-2016/3ddf/3ddf_pocket.pdb
REMARK  152 active torsions:
REMARK  status: ('A' for Active; 'I' for Inactive)
REMARK    1  A    between atoms: _1  and  _3
REMARK    2  A    between atoms: _14  and  _17
REMARK    3  A    between atoms: _17  and  _18
REMARK    4  A    between atoms: _25  and  _26
REMARK    5  A    between atoms: _33  and  _34
REMARK    6  A    between atoms: _39  and  _41
REMARK    7  A    between atoms: _41  and  _42
REMARK    8  A    between atoms: _44  and  _46
REMARK    9  A    between atoms: _46  and  _47
REMARK   10  A    between atoms: _46  and  _49
REMARK   11  A    between atoms: _49  and  _50
REMARK   12  A    between atoms: _60  and  _62
REMARK   13  A    between atoms: _62  and  _63
REMARK   14  A    between atoms: _62  and  _65
REMARK   15  A    between atoms: _65  and  _66
REMARK   16  A    between atoms: _69  and  _71
REMARK   17  A    between atoms: _71  and  _72
REMARK   18  A    between atoms: _71  and  _74
REMARK   19  A    between atoms: _74  and  _75
REMARK   20  A    between atoms: _80  and  _81
REMARK   21  A    between atoms: _83  and  _85
REMARK   22  A    between atoms: _85  and  _86
REMARK   23  A    between atoms: _85  and  _88
REMARK   24  A    between atoms: _88  and  _89
REMARK   25  A    between atoms: _89  and  _90
REMARK   26  A    between atoms: _93  and  _95
REMARK   27  A    between atoms: _95  and  _96
REMARK   28  A    between atoms: _95  and  _98
REMARK   29  A    between atoms: _98  and  _99
REMARK   30  A    between atoms: _99  and  _100
REMARK   31  A    between atoms: _102  and  _104
REMARK   32  A    between atoms: _104  and  _105
REMARK   33  A    between atoms: _104  and  _107
REMARK   34  A    between atoms: _107  and  _108
REMARK   35  A    between atoms: _111  and  _113
REMARK   36  A    between atoms: _113  and  _114
REMARK   37  A    between atoms: _113  and  _116
REMARK   38  A    between atoms: _116  and  _117
REMARK   39  A    between atoms: _117  and  _118
REMARK   40  A    between atoms: _118  and  ZN_415
REMARK   41  A    between atoms: _121  and  _122
REMARK   42  A    between atoms: _127  and  _129
REMARK   43  A    between atoms: _129  and  _130
REMARK   44  A    between atoms: _129  and  _132
REMARK   45  A    between atoms: _132  and  _133
REMARK   46  A    between atoms: _139  and  _141
REMARK   47  A    between atoms: _141  and  _142
REMARK   48  A    between atoms: _141  and  _144
REMARK   49  A    between atoms: _144  and  _145
REMARK   50  A    between atoms: _145  and  _146
REMARK   51  A    between atoms: _146  and  _147
REMARK   52  A    between atoms: _156  and  _158
REMARK   53  A    between atoms: _158  and  _159
REMARK   54  A    between atoms: _158  and  _161
REMARK   55  A    between atoms: _161  and  _162
REMARK   56  A    between atoms: _167  and  _168
REMARK   57  A    between atoms: _170  and  _172
REMARK   58  A    between atoms: _172  and  _173
REMARK   59  A    between atoms: _172  and  _175
REMARK   60  A    between atoms: _175  and  _176
REMARK   61  A    between atoms: _178  and  _180
REMARK   62  A    between atoms: _180  and  _181
REMARK   63  A    between atoms: _180  and  _183
REMARK   64  A    between atoms: _183  and  _184
REMARK   65  A    between atoms: _189  and  _190
REMARK   66  A    between atoms: _192  and  _194
REMARK   67  A    between atoms: _194  and  _195
REMARK   68  A    between atoms: _194  and  _197
REMARK   69  A    between atoms: _197  and  _198
REMARK   70  A    between atoms: _201  and  _203
REMARK   71  A    between atoms: _203  and  _204
REMARK   72  A    between atoms: _203  and  _206
REMARK   73  A    between atoms: _206  and  _207
REMARK   74  A    between atoms: _210  and  _212
REMARK   75  A    between atoms: _212  and  _213
REMARK   76  A    between atoms: _212  and  _215
REMARK   77  A    between atoms: _215  and  _216
REMARK   78  A    between atoms: _216  and  _217
REMARK   79  A    between atoms: _217  and  _218
REMARK   80  A    between atoms: _227  and  _229
REMARK   81  A    between atoms: _229  and  _230
REMARK   82  A    between atoms: _232  and  _234
REMARK   83  A    between atoms: _234  and  _235
REMARK   84  A    between atoms: _234  and  _237
REMARK   85  A    between atoms: _237  and  _238
REMARK   86  A    between atoms: _241  and  _243
REMARK   87  A    between atoms: _243  and  _244
REMARK   88  A    between atoms: _243  and  _246
REMARK   89  A    between atoms: _246  and  _247
REMARK   90  A    between atoms: _250  and  _252
REMARK   91  A    between atoms: _252  and  _253
REMARK   92  A    between atoms: _252  and  _255
REMARK   93  A    between atoms: _255  and  _256
REMARK   94  A    between atoms: _262  and  _264
REMARK   95  A    between atoms: _264  and  _265
REMARK   96  A    between atoms: _264  and  _267
REMARK   97  A    between atoms: _267  and  _268
REMARK   98  A    between atoms: _268  and  _269
REMARK   99  A    between atoms: _269  and  _270
REMARK  100  A    between atoms: _279  and  _281
REMARK  101  A    between atoms: _281  and  _282
REMARK  102  A    between atoms: _281  and  _284
REMARK  103  A    between atoms: _284  and  _285
REMARK  104  A    between atoms: _295  and  _297
REMARK  105  A    between atoms: _297  and  _298
REMARK  106  A    between atoms: _297  and  _300
REMARK  107  A    between atoms: _300  and  _301
REMARK  108  A    between atoms: _306  and  _308
REMARK  109  A    between atoms: _308  and  _309
REMARK  110  A    between atoms: _308  and  _311
REMARK  111  A    between atoms: _311  and  _312
REMARK  112  A    between atoms: _316  and  ZN_415
REMARK  113  A    between atoms: _317  and  _319
REMARK  114  A    between atoms: _319  and  _320
REMARK  115  A    between atoms: _319  and  _322
REMARK  116  A    between atoms: _322  and  _323
REMARK  117  A    between atoms: _326  and  _328
REMARK  118  A    between atoms: _328  and  _329
REMARK  119  A    between atoms: _331  and  _333
REMARK  120  A    between atoms: _333  and  _334
REMARK  121  A    between atoms: _333  and  _336
REMARK  122  A    between atoms: _336  and  _337
REMARK  123  A    between atoms: _340  and  _342
REMARK  124  A    between atoms: _342  and  _343
REMARK  125  A    between atoms: _342  and  _345
REMARK  126  A    between atoms: _345  and  _346
REMARK  127  A    between atoms: _349  and  _351
REMARK  128  A    between atoms: _351  and  _352
REMARK  129  A    between atoms: _355  and  _357
REMARK  130  A    between atoms: _357  and  _358
REMARK  131  A    between atoms: _357  and  _360
REMARK  132  A    between atoms: _360  and  _361
REMARK  133  A    between atoms: _366  and  _367
REMARK  134  A    between atoms: _369  and  _371
REMARK  135  A    between atoms: _371  and  _372
REMARK  136  A    between atoms: _371  and  _374
REMARK  137  A    between atoms: _374  and  _375
REMARK  138  A    between atoms: _375  and  _376
REMARK  139  A    between atoms: _379  and  _381
REMARK  140  A    between atoms: _381  and  _382
REMARK  141  A    between atoms: _381  and  _384
REMARK  142  A    between atoms: _384  and  _385
REMARK  143  A    between atoms: _385  and  _386
REMARK  144  A    between atoms: _386  and  _387
REMARK  145  A    between atoms: _396  and  _398
REMARK  146  A    between atoms: _398  and  _399
REMARK  147  A    between atoms: _401  and  _403
REMARK  148  A    between atoms: _403  and  _404
REMARK  149  A    between atoms: _403  and  _406
REMARK  150  A    between atoms: _406  and  _407
REMARK  151  A    between atoms: _410  and  _412
REMARK  152  A    between atoms: _412  and  _413
REMARK                            x       y       z     vdW  Elec       q    Type
REMARK                         _______ _______ _______ _____ _____    ______ ____
ROOT
ATOM      1  C   UNK A   1      36.866  61.520  13.390  0.00  0.00    +0.000 C 
ATOM      2  C   UNK A   1      37.526  62.886  13.294  0.00  0.00    +0.000 C 
ATOM      3  O   UNK A   1      36.965  63.883  13.773  0.00  0.00    +0.000 OA
ATOM      4  N   UNK A   2      38.723  62.942  12.694  0.00  0.00    +0.000 N 
ATOM      5  C   UNK A   2      39.516  64.178  12.661  0.00  0.00    +0.000 C 
ATOM      6  C   UNK A   2      39.667  64.667  11.240  0.00  0.00    +0.000 C 
ATOM      7  N   UNK A   3      38.847  65.621  10.831  0.00  0.00    +0.000 N 
ATOM      8  H   UNK A   3      38.141  65.983  11.504  0.00  0.00    +0.000 HD
ATOM      9  C   UNK A   3      38.876  66.187   9.508  0.00  0.00    +0.000 C 
ATOM     10  C   UNK A   3      37.620  67.055   9.330  0.00  0.00    +0.000 C 
ATOM     11  C   UNK A   3      36.354  66.223   9.344  0.00  0.00    +0.000 C 
ATOM     12  O   UNK A   3      35.474  66.542  10.166  0.00  0.00    +0.000 OA
ATOM     13  O   UNK A   3      36.253  65.290   8.533  0.00  0.00    +0.000 OA
ATOM     14 ZN   UNK A   1      34.536  64.120   7.956  0.00  0.00    +0.000 Zn
ATOM     15  N   UNK A   1      35.014  62.705   9.309  0.00  0.00    +0.000 N 
ATOM     16  C   UNK A   1      34.798  62.818  10.666  0.00  0.00    +0.000 A 
ATOM     17  C   UNK A   1      35.405  61.797  11.335  0.00  0.00    +0.000 A 
ATOM     18  N   UNK A   1      35.994  61.007  10.372  0.00  0.00    +0.000 NA
ATOM     19  C   UNK A   1      35.740  61.596   9.189  0.00  0.00    +0.000 A 
ATOM     20  O   UNK A   2      40.560  64.224  10.478  0.00  0.00    +0.000 OA
ATOM     21  H   UNK A   2      39.101  62.087  12.239  0.00  0.00    +0.000 HD
ATOM     22  C   UNK A   1      35.449  61.459  12.788  0.00  0.00    +0.000 C 
ENDROOT
BRANCH   9  23
ATOM     23  C   UNK A   3      40.105  67.023   9.281  0.00  0.00    +0.000 C 
ATOM     24  O   UNK A   3      40.303  67.987  10.029  0.00  0.00    +0.000 OA
ATOM     25  N   PRO A   4      40.947  66.705   8.286  0.00  0.00    +0.000 N 
ATOM     26  CA  PRO A   4      42.115  67.546   7.934  0.00  0.00    +0.000 C 
ATOM     27  CB  PRO A   4      42.945  66.578   7.066  0.00  0.00    +0.000 C 
ATOM     28  CG  PRO A   4      42.493  65.216   7.420  0.00  0.00    +0.000 C 
ATOM     29  CD  PRO A   4      41.004  65.405   7.576  0.00  0.00    +0.000 C 
BRANCH  26  30
ATOM     30  C   PRO A   4      41.722  68.809   7.181  0.00  0.00    +0.000 C 
ATOM     31  N   GLY A   5      40.992  69.676   7.881  0.00  0.00    +0.000 N 
ATOM     32  H   GLY A   5      40.845  69.462   8.888  0.00  0.00    +0.000 HD
ATOM     33  O   PRO A   4      42.088  69.037   6.032  0.00  0.00    +0.000 OA
BRANCH  31  34
ATOM     34  CA  GLY A   5      40.385  70.886   7.374  0.00  0.00    +0.000 C 
BRANCH  34  35
ATOM     35  C   GLY A   5      38.893  70.708   7.146  0.00  0.00    +0.000 C 
ATOM     36  N   TRP A   6      38.101  71.708   7.550  0.00  0.00    +0.000 N 
ATOM     37  H   TRP A   6      38.530  72.494   8.079  0.00  0.00    +0.000 HD
ATOM     38  O   GLY A   5      38.473  69.707   6.566  0.00  0.00    +0.000 OA
BRANCH  36  39
ATOM     39  CA  TRP A   6      36.669  71.752   7.286  0.00  0.00    +0.000 C 
BRANCH  39  40
ATOM     40  C   TRP A   6      36.146  73.131   7.711  0.00  0.00    +0.000 C 
ATOM     41  N   ILE A   7      35.838  73.296   8.971  0.00  0.00    +0.000 N 
ATOM     42  H   ILE A   7      35.883  72.461   9.589  0.00  0.00    +0.000 HD
ATOM     43  O   TRP A   6      36.091  74.040   6.895  0.00  0.00    +0.000 OA
BRANCH  41  44
ATOM     44  CA  ILE A   7      35.431  74.579   9.585  0.00  0.00    +0.000 C 
BRANCH  44  45
ATOM     45  C   ILE A   7      36.650  75.398  10.015  0.00  0.00    +0.000 C 
ATOM     46  O   ILE A   7      36.571  76.603  10.135  0.00  0.00    +0.000 OA
ENDBRANCH  44  45
BRANCH  44  47
ATOM     47  CB  ILE A   7      34.577  74.359  10.952  0.00  0.00    +0.000 C 
ATOM     48  CG2 ILE A   7      34.114  75.697  11.576  0.00  0.00    +0.000 C 
BRANCH  47  49
ATOM     49  CG1 ILE A   7      33.420  73.470  10.710  0.00  0.00    +0.000 C 
ATOM     50  CD1 ILE A   7      32.763  73.946   9.415  0.00  0.00    +0.000 C 
ENDBRANCH  47  49
ENDBRANCH  44  47
ENDBRANCH  41  44
ENDBRANCH  39  40
BRANCH  39  51
ATOM     51  CB  TRP A   6      35.870  70.644   7.967  0.00  0.00    +0.000 C 
BRANCH  51  52
ATOM     52  CG  TRP A   6      34.391  70.693   7.615  0.00  0.00    +0.000 A 
ATOM     53  CD2 TRP A   6      33.305  70.356   8.498  0.00  0.00    +0.000 A 
ATOM     54  CE3 TRP A   6      33.230  69.891   9.838  0.00  0.00    +0.000 A 
ATOM     55  CZ3 TRP A   6      31.974  69.639  10.379  0.00  0.00    +0.000 A 
ATOM     56  CH2 TRP A   6      30.809  69.828   9.616  0.00  0.00    +0.000 A 
ATOM     57  CZ2 TRP A   6      30.860  70.279   8.304  0.00  0.00    +0.000 A 
ATOM     58  CE2 TRP A   6      32.130  70.534   7.765  0.00  0.00    +0.000 A 
ATOM     59  NE1 TRP A   6      32.447  70.988   6.498  0.00  0.00    +0.000 N 
ATOM     60  HE1 TRP A   6      31.777  71.223   5.738  0.00  0.00    +0.000 HD
ATOM     61  CD1 TRP A   6      33.836  71.071   6.434  0.00  0.00    +0.000 A 
ENDBRANCH  51  52
ENDBRANCH  39  51
ENDBRANCH  36  39
ENDBRANCH  34  35
ENDBRANCH  31  34
ENDBRANCH  26  30
ENDBRANCH   9  23
BRANCH  14  62
ATOM     62  N   UNK A   1      35.422  63.592   6.160  0.00  0.00    +0.000 N 
ATOM     63  C   UNK A   1      36.467  62.798   5.895  0.00  0.00    +0.000 A 
ATOM     64  N   UNK A   1      36.644  62.659   4.563  0.00  0.00    +0.000 NA
ATOM     65  C   UNK A   1      35.656  63.415   3.932  0.00  0.00    +0.000 A 
ATOM     66  C   UNK A   1      34.911  63.976   4.917  0.00  0.00    +0.000 A 
BRANCH  65  67
ATOM     67  C   UNK A   1      35.557  63.515   2.448  0.00  0.00    +0.000 C 
BRANCH  67  68
ATOM     68  C   UNK A   1      36.358  64.713   1.875  0.00  0.00    +0.000 C 
BRANCH  68  69
ATOM     69  C   UNK A   1      35.767  66.049   2.269  0.00  0.00    +0.000 C 
ATOM     70  N   UNK A   3      36.596  67.039   2.703  0.00  0.00    +0.000 N 
ATOM     71  H   UNK A   3      37.529  66.788   3.088  0.00  0.00    +0.000 HD
ATOM     72  O   UNK A   1      34.581  66.269   2.084  0.00  0.00    +0.000 OA
BRANCH  70  73
ATOM     73  C   UNK A   3      36.201  68.456   2.639  0.00  0.00    +0.000 C 
BRANCH  73  74
ATOM     74  C   UNK A   3      37.144  69.301   1.790  0.00  0.00    +0.000 C 
ATOM     75  O   UNK A   3      37.004  70.530   1.789  0.00  0.00    +0.000 OA
ATOM     76  N   PRO A   4      38.059  68.677   1.058  0.00  0.00    +0.000 N 
ATOM     77  H   PRO A   4      38.096  67.638   1.075  0.00  0.00    +0.000 HD
BRANCH  76  78
ATOM     78  CA  PRO A   4      39.026  69.416   0.220  0.00  0.00    +0.000 C 
BRANCH  78  79
ATOM     79  C   PRO A   4      38.476  69.489  -1.189  0.00  0.00    +0.000 C 
ATOM     80  O   PRO A   4      37.725  70.402  -1.535  0.00  0.00    +0.000 OA
ENDBRANCH  78  79
ENDBRANCH  76  78
ENDBRANCH  73  74
BRANCH  73  81
ATOM     81  C   UNK A   3      36.066  69.099   4.005  0.00  0.00    +0.000 C 
BRANCH  81  82
ATOM     82  C   UNK A   3      35.079  68.399   4.889  0.00  0.00    +0.000 C 
ATOM     83  O   UNK A   3      35.443  67.795   5.905  0.00  0.00    +0.000 OA
ATOM     84  O   UNK A   3      33.851  68.472   4.490  0.00  0.00    +0.000 OA
ENDBRANCH  81  82
ENDBRANCH  73  81
ENDBRANCH  70  73
ENDBRANCH  68  69
BRANCH  68  85
ATOM     85  N   UNK A   1      37.789  64.535   2.192  0.00  0.00    +0.000 N 
ATOM     86  H   UNK A   1      38.063  63.932   2.994  0.00  0.00    +0.000 HD
ATOM     87  C   UNK A   1      38.738  65.134   1.469  0.00  0.00    +0.000 C 
ATOM     88  O   UNK A   1      38.521  65.910   0.535  0.00  0.00    +0.000 OA
BRANCH  87  89
ATOM     89  C   UNK A   1      40.151  64.827   1.957  0.00  0.00    +0.000 C 
BRANCH  89  90
ATOM     90  N   UNK A   1      41.110  64.882   0.855  0.00  0.00    +0.000 NA
ATOM     91  H   UNK A   1      41.989  65.423   0.986  0.00  0.00    +0.000 HD
ENDBRANCH  89  90
BRANCH  89  92
ATOM     92  C   UNK A   1      40.605  65.821   3.032  0.00  0.00    +0.000 C 
BRANCH  92  93
ATOM     93  C   UNK A   1      39.638  66.085   4.119  0.00  0.00    +0.000 A 
ATOM     94  C   UNK A   1      38.968  65.084   4.810  0.00  0.00    +0.000 A 
ATOM     95  N   UNK A   1      38.182  65.731   5.687  0.00  0.00    +0.000 NA
ATOM     96  C   UNK A   1      38.374  67.051   5.608  0.00  0.00    +0.000 A 
ATOM     97  N   UNK A   1      39.268  67.310   4.635  0.00  0.00    +0.000 NA
ENDBRANCH  92  93
ENDBRANCH  89  92
ENDBRANCH  87  89
ENDBRANCH  68  85
ENDBRANCH  67  68
ENDBRANCH  65  67
ENDBRANCH  14  62
BRANCH   1  98
ATOM     98  N   UNK A   1      36.779  61.146  14.796  0.00  0.00    +0.000 NA
ATOM     99  H   UNK A   1      35.912  61.335  15.338  0.00  0.00    +0.000 HD
ENDBRANCH   1  98
BRANCH   5 100
ATOM    100  C   UNK A   2      40.918  63.989  13.267  0.00  0.00    +0.000 C 
BRANCH 100 101
ATOM    101  C   UNK A   2      40.872  63.867  14.765  0.00  0.00    +0.000 C 
ATOM    102  N   UNK A   2      41.490  64.755  15.455  0.00  0.00    +0.000 N 
ATOM    103  H   UNK A   2      41.448  64.728  16.494  0.00  0.00    +0.000 HD
ATOM    104  H   UNK A   2      42.033  65.501  14.975  0.00  0.00    +0.000 HD
ATOM    105  O   UNK A   2      40.192  62.930  15.313  0.00  0.00    +0.000 OA
ENDBRANCH 100 101
ENDBRANCH   5 100
BRANCH  14 106
ATOM    106  O   UNK A   1      32.726  63.523   7.292  0.00  0.00    +0.000 OA
BRANCH 106 107
ATOM    107  C   UNK A   1      32.149  62.402   7.153  0.00  0.00    +0.000 C 
ATOM    108  O   UNK A   1      30.922  62.241   7.244  0.00  0.00    +0.000 OA
BRANCH 107 109
ATOM    109  C   UNK A   1      33.024  61.156   6.949  0.00  0.00    +0.000 C 
BRANCH 109 110
ATOM    110  C   UNK A   1      32.348  60.027   6.145  0.00  0.00    +0.000 C 
BRANCH 110 111
ATOM    111  C   UNK A   1      32.343  60.394   4.669  0.00  0.00    +0.000 C 
ATOM    112  O   UNK A   1      31.604  61.360   4.379  0.00  0.00    +0.000 OA
ATOM    113  N   UNK A   3      33.028  59.791   3.697  0.00  0.00    +0.000 N 
ATOM    114  C   UNK A   3      34.035  58.731   3.803  0.00  0.00    +0.000 C 
ATOM    115  C   UNK A   3      34.742  58.812   2.485  0.00  0.00    +0.000 C 
ATOM    116  C   UNK A   3      33.697  59.239   1.519  0.00  0.00    +0.000 C 
ATOM    117  C   UNK A   3      32.854  60.235   2.303  0.00  0.00    +0.000 C 
BRANCH 117 118
ATOM    118  C   UNK A   3      31.388  60.173   1.881  0.00  0.00    +0.000 C 
ATOM    119  O   UNK A   3      30.638  59.300   2.337  0.00  0.00    +0.000 OA
ATOM    120  N   PRO A   4      30.988  61.103   1.010  0.00  0.00    +0.000 N 
ATOM    121  H   PRO A   4      31.692  61.672   0.498  0.00  0.00    +0.000 HD
BRANCH 120 122
ATOM    122  CA  PRO A   4      29.548  61.324   0.774  0.00  0.00    +0.000 C 
BRANCH 122 123
ATOM    123  C   PRO A   4      29.060  60.434  -0.378  0.00  0.00    +0.000 C 
ATOM    124  O   PRO A   4      28.831  60.856  -1.502  0.00  0.00    +0.000 OA
ENDBRANCH 122 123
BRANCH 122 125
ATOM    125  CB  PRO A   4      29.283  62.801   0.519  0.00  0.00    +0.000 C 
BRANCH 125 126
ATOM    126  CG  PRO A   4      30.044  63.760   1.398  0.00  0.00    +0.000 A 
ATOM    127  CD2 PRO A   4      30.253  63.524   2.745  0.00  0.00    +0.000 A 
ATOM    128  CE2 PRO A   4      31.014  64.381   3.511  0.00  0.00    +0.000 A 
ATOM    129  CZ  PRO A   4      31.553  65.538   2.922  0.00  0.00    +0.000 A 
ATOM    130  CE1 PRO A   4      31.349  65.788   1.585  0.00  0.00    +0.000 A 
ATOM    131  CD1 PRO A   4      30.612  64.890   0.825  0.00  0.00    +0.000 A 
ENDBRANCH 125 126
ENDBRANCH 122 125
ENDBRANCH 120 122
ENDBRANCH 117 118
ENDBRANCH 110 111
BRANCH 110 132
ATOM    132  N   UNK A   1      32.882  58.718   6.530  0.00  0.00    +0.000 N 
ATOM    133  C   UNK A   1      32.130  57.863   7.241  0.00  0.00    +0.000 C 
ATOM    134  O   UNK A   1      30.931  58.076   7.496  0.00  0.00    +0.000 OA
ATOM    135  H   UNK A   1      33.848  58.450   6.251  0.00  0.00    +0.000 HD
BRANCH 133 136
ATOM    136  C   UNK A   1      32.784  56.595   7.777  0.00  0.00    +0.000 C 
BRANCH 136 137
ATOM    137  N   UNK A   1      34.077  56.280   7.156  0.00  0.00    +0.000 NA
ATOM    138  H   UNK A   1      34.951  56.617   7.608  0.00  0.00    +0.000 HD
ENDBRANCH 136 137
BRANCH 136 139
ATOM    139  C   UNK A   1      32.910  56.650   9.292  0.00  0.00    +0.000 C 
ATOM    140  C   UNK A   1      33.104  55.251   9.857  0.00  0.00    +0.000 C 
BRANCH 139 141
ATOM    141  C   UNK A   1      33.984  57.634   9.778  0.00  0.00    +0.000 C 
ATOM    142  C   UNK A   1      33.874  57.972  11.260  0.00  0.00    +0.000 C 
ENDBRANCH 139 141
ENDBRANCH 136 139
ENDBRANCH 133 136
ENDBRANCH 110 132
ENDBRANCH 109 110
ENDBRANCH 107 109
ENDBRANCH 106 107
ENDBRANCH  14 106
TORSDOF 45
REMARK  Name = ../refined-set-2016/3ddf/3ddf_pocket.pdb
REMARK  152 active torsions:
REMARK  status: ('A' for Active; 'I' for Inactive)
REMARK    1  A    between atoms: _1  and  _3
REMARK    2  A    between atoms: _14  and  _17
REMARK    3  A    between atoms: _17  and  _18
REMARK    4  A    between atoms: _25  and  _26
REMARK    5  A    between atoms: _33  and  _34
REMARK    6  A    between atoms: _39  and  _41
REMARK    7  A    between atoms: _41  and  _42
REMARK    8  A    between atoms: _44  and  _46
REMARK    9  A    between atoms: _46  and  _47
REMARK   10  A    between atoms: _46  and  _49
REMARK   11  A    between atoms: _49  and  _50
REMARK   12  A    between atoms: _60  and  _62
REMARK   13  A    between atoms: _62  and  _63
REMARK   14  A    between atoms: _62  and  _65
REMARK   15  A    between atoms: _65  and  _66
REMARK   16  A    between atoms: _69  and  _71
REMARK   17  A    between atoms: _71  and  _72
REMARK   18  A    between atoms: _71  and  _74
REMARK   19  A    between atoms: _74  and  _75
REMARK   20  A    between atoms: _80  and  _81
REMARK   21  A    between atoms: _83  and  _85
REMARK   22  A    between atoms: _85  and  _86
REMARK   23  A    between atoms: _85  and  _88
REMARK   24  A    between atoms: _88  and  _89
REMARK   25  A    between atoms: _89  and  _90
REMARK   26  A    between atoms: _93  and  _95
REMARK   27  A    between atoms: _95  and  _96
REMARK   28  A    between atoms: _95  and  _98
REMARK   29  A    between atoms: _98  and  _99
REMARK   30  A    between atoms: _99  and  _100
REMARK   31  A    between atoms: _102  and  _104
REMARK   32  A    between atoms: _104  and  _105
REMARK   33  A    between atoms: _104  and  _107
REMARK   34  A    between atoms: _107  and  _108
REMARK   35  A    between atoms: _111  and  _113
REMARK   36  A    between atoms: _113  and  _114
REMARK   37  A    between atoms: _113  and  _116
REMARK   38  A    between atoms: _116  and  _117
REMARK   39  A    between atoms: _117  and  _118
REMARK   40  A    between atoms: _118  and  ZN_415
REMARK   41  A    between atoms: _121  and  _122
REMARK   42  A    between atoms: _127  and  _129
REMARK   43  A    between atoms: _129  and  _130
REMARK   44  A    between atoms: _129  and  _132
REMARK   45  A    between atoms: _132  and  _133
REMARK   46  A    between atoms: _139  and  _141
REMARK   47  A    between atoms: _141  and  _142
REMARK   48  A    between atoms: _141  and  _144
REMARK   49  A    between atoms: _144  and  _145
REMARK   50  A    between atoms: _145  and  _146
REMARK   51  A    between atoms: _146  and  _147
REMARK   52  A    between atoms: _156  and  _158
REMARK   53  A    between atoms: _158  and  _159
REMARK   54  A    between atoms: _158  and  _161
REMARK   55  A    between atoms: _161  and  _162
REMARK   56  A    between atoms: _167  and  _168
REMARK   57  A    between atoms: _170  and  _172
REMARK   58  A    between atoms: _172  and  _173
REMARK   59  A    between atoms: _172  and  _175
REMARK   60  A    between atoms: _175  and  _176
REMARK   61  A    between atoms: _178  and  _180
REMARK   62  A    between atoms: _180  and  _181
REMARK   63  A    between atoms: _180  and  _183
REMARK   64  A    between atoms: _183  and  _184
REMARK   65  A    between atoms: _189  and  _190
REMARK   66  A    between atoms: _192  and  _194
REMARK   67  A    between atoms: _194  and  _195
REMARK   68  A    between atoms: _194  and  _197
REMARK   69  A    between atoms: _197  and  _198
REMARK   70  A    between atoms: _201  and  _203
REMARK   71  A    between atoms: _203  and  _204
REMARK   72  A    between atoms: _203  and  _206
REMARK   73  A    between atoms: _206  and  _207
REMARK   74  A    between atoms: _210  and  _212
REMARK   75  A    between atoms: _212  and  _213
REMARK   76  A    between atoms: _212  and  _215
REMARK   77  A    between atoms: _215  and  _216
REMARK   78  A    between atoms: _216  and  _217
REMARK   79  A    between atoms: _217  and  _218
REMARK   80  A    between atoms: _227  and  _229
REMARK   81  A    between atoms: _229  and  _230
REMARK   82  A    between atoms: _232  and  _234
REMARK   83  A    between atoms: _234  and  _235
REMARK   84  A    between atoms: _234  and  _237
REMARK   85  A    between atoms: _237  and  _238
REMARK   86  A    between atoms: _241  and  _243
REMARK   87  A    between atoms: _243  and  _244
REMARK   88  A    between atoms: _243  and  _246
REMARK   89  A    between atoms: _246  and  _247
REMARK   90  A    between atoms: _250  and  _252
REMARK   91  A    between atoms: _252  and  _253
REMARK   92  A    between atoms: _252  and  _255
REMARK   93  A    between atoms: _255  and  _256
REMARK   94  A    between atoms: _262  and  _264
REMARK   95  A    between atoms: _264  and  _265
REMARK   96  A    between atoms: _264  and  _267
REMARK   97  A    between atoms: _267  and  _268
REMARK   98  A    between atoms: _268  and  _269
REMARK   99  A    between atoms: _269  and  _270
REMARK  100  A    between atoms: _279  and  _281
REMARK  101  A    between atoms: _281  and  _282
REMARK  102  A    between atoms: _281  and  _284
REMARK  103  A    between atoms: _284  and  _285
REMARK  104  A    between atoms: _295  and  _297
REMARK  105  A    between atoms: _297  and  _298
REMARK  106  A    between atoms: _297  and  _300
REMARK  107  A    between atoms: _300  and  _301
REMARK  108  A    between atoms: _306  and  _308
REMARK  109  A    between atoms: _308  and  _309
REMARK  110  A    between atoms: _308  and  _311
REMARK  111  A    between atoms: _311  and  _312
REMARK  112  A    between atoms: _316  and  ZN_415
REMARK  113  A    between atoms: _317  and  _319
REMARK  114  A    between atoms: _319  and  _320
REMARK  115  A    between atoms: _319  and  _322
REMARK  116  A    between atoms: _322  and  _323
REMARK  117  A    between atoms: _326  and  _328
REMARK  118  A    between atoms: _328  and  _329
REMARK  119  A    between atoms: _331  and  _333
REMARK  120  A    between atoms: _333  and  _334
REMARK  121  A    between atoms: _333  and  _336
REMARK  122  A    between atoms: _336  and  _337
REMARK  123  A    between atoms: _340  and  _342
REMARK  124  A    between atoms: _342  and  _343
REMARK  125  A    between atoms: _342  and  _345
REMARK  126  A    between atoms: _345  and  _346
REMARK  127  A    between atoms: _349  and  _351
REMARK  128  A    between atoms: _351  and  _352
REMARK  129  A    between atoms: _355  and  _357
REMARK  130  A    between atoms: _357  and  _358
REMARK  131  A    between atoms: _357  and  _360
REMARK  132  A    between atoms: _360  and  _361
REMARK  133  A    between atoms: _366  and  _367
REMARK  134  A    between atoms: _369  and  _371
REMARK  135  A    between atoms: _371  and  _372
REMARK  136  A    between atoms: _371  and  _374
REMARK  137  A    between atoms: _374  and  _375
REMARK  138  A    between atoms: _375  and  _376
REMARK  139  A    between atoms: _379  and  _381
REMARK  140  A    between atoms: _381  and  _382
REMARK  141  A    between atoms: _381  and  _384
REMARK  142  A    between atoms: _384  and  _385
REMARK  143  A    between atoms: _385  and  _386
REMARK  144  A    between atoms: _386  and  _387
REMARK  145  A    between atoms: _396  and  _398
REMARK  146  A    between atoms: _398  and  _399
REMARK  147  A    between atoms: _401  and  _403
REMARK  148  A    between atoms: _403  and  _404
REMARK  149  A    between atoms: _403  and  _406
REMARK  150  A    between atoms: _406  and  _407
REMARK  151  A    between atoms: _410  and  _412
REMARK  152  A    between atoms: _412  and  _413
REMARK                            x       y       z     vdW  Elec       q    Type
REMARK                         _______ _______ _______ _____ _____    ______ ____
ROOT
ATOM      1  CG  TYR A   1      40.351  71.138  12.733  0.00  0.00    -0.020 A 
ATOM      2  CD2 TYR A   1      39.312  71.404  13.642  0.00  0.00    -0.001 A 
ATOM      3  CE2 TYR A   1      37.968  71.549  13.165  0.00  0.00    +0.036 A 
ATOM      4  CZ  TYR A   1      37.702  71.375  11.804  0.00  0.00    +0.134 A 
ATOM      5  CE1 TYR A   1      38.720  71.077  10.900  0.00  0.00    +0.036 A 
ATOM      6  CD1 TYR A   1      40.041  70.988  11.360  0.00  0.00    -0.001 A 
ENDROOT
BRANCH   4   7
ATOM      7  OH  TYR A   1      36.417  71.443  11.313  0.00  0.00    -0.506 OA
ATOM      8  HH  TYR A   1      35.794  71.660  12.051  0.00  0.00    +0.292 HD
ENDBRANCH   4   7
BRANCH   1   9
ATOM      9  CB  TYR A   1      41.773  70.906  13.203  0.00  0.00    +0.051 C 
BRANCH   9  10
ATOM     10  CA  TYR A   1      42.380  71.911  14.210  0.00  0.00    +0.137 C 
BRANCH  10  11
ATOM     11  N   TYR A   1      42.907  73.088  13.489  0.00  0.00    -0.239 NA
ATOM     12  H   TYR A   1      42.853  73.137  12.452  0.00  0.00    +0.142 HD
ENDBRANCH  10  11
BRANCH  10  13
ATOM     13  C   TYR A   1      43.499  71.177  14.960  0.00  0.00    +0.224 C 
ATOM     14  O   TYR A   1      43.268  70.653  16.019  0.00  0.00    -0.287 OA
ENDBRANCH  10  13
ENDBRANCH   9  10
ENDBRANCH   1   9
TORSDOF 5
REMARK  Name = ../refined-set-2016/3ddf/3ddf_pocket.pdb
REMARK  152 active torsions:
REMARK  status: ('A' for Active; 'I' for Inactive)
REMARK    1  A    between atoms: _1  and  _3
REMARK    2  A    between atoms: _14  and  _17
REMARK    3  A    between atoms: _17  and  _18
REMARK    4  A    between atoms: _25  and  _26
REMARK    5  A    between atoms: _33  and  _34
REMARK    6  A    between atoms: _39  and  _41
REMARK    7  A    between atoms: _41  and  _42
REMARK    8  A    between atoms: _44  and  _46
REMARK    9  A    between atoms: _46  and  _47
REMARK   10  A    between atoms: _46  and  _49
REMARK   11  A    between atoms: _49  and  _50
REMARK   12  A    between atoms: _60  and  _62
REMARK   13  A    between atoms: _62  and  _63
REMARK   14  A    between atoms: _62  and  _65
REMARK   15  A    between atoms: _65  and  _66
REMARK   16  A    between atoms: _69  and  _71
REMARK   17  A    between atoms: _71  and  _72
REMARK   18  A    between atoms: _71  and  _74
REMARK   19  A    between atoms: _74  and  _75
REMARK   20  A    between atoms: _80  and  _81
REMARK   21  A    between atoms: _83  and  _85
REMARK   22  A    between atoms: _85  and  _86
REMARK   23  A    between atoms: _85  and  _88
REMARK   24  A    between atoms: _88  and  _89
REMARK   25  A    between atoms: _89  and  _90
REMARK   26  A    between atoms: _93  and  _95
REMARK   27  A    between atoms: _95  and  _96
REMARK   28  A    between atoms: _95  and  _98
REMARK   29  A    between atoms: _98  and  _99
REMARK   30  A    between atoms: _99  and  _100
REMARK   31  A    between atoms: _102  and  _104
REMARK   32  A    between atoms: _104  and  _105
REMARK   33  A    between atoms: _104  and  _107
REMARK   34  A    between atoms: _107  and  _108
REMARK   35  A    between atoms: _111  and  _113
REMARK   36  A    between atoms: _113  and  _114
REMARK   37  A    between atoms: _113  and  _116
REMARK   38  A    between atoms: _116  and  _117
REMARK   39  A    between atoms: _117  and  _118
REMARK   40  A    between atoms: _118  and  ZN_415
REMARK   41  A    between atoms: _121  and  _122
REMARK   42  A    between atoms: _127  and  _129
REMARK   43  A    between atoms: _129  and  _130
REMARK   44  A    between atoms: _129  and  _132
REMARK   45  A    between atoms: _132  and  _133
REMARK   46  A    between atoms: _139  and  _141
REMARK   47  A    between atoms: _141  and  _142
REMARK   48  A    between atoms: _141  and  _144
REMARK   49  A    between atoms: _144  and  _145
REMARK   50  A    between atoms: _145  and  _146
REMARK   51  A    between atoms: _146  and  _147
REMARK   52  A    between atoms: _156  and  _158
REMARK   53  A    between atoms: _158  and  _159
REMARK   54  A    between atoms: _158  and  _161
REMARK   55  A    between atoms: _161  and  _162
REMARK   56  A    between atoms: _167  and  _168
REMARK   57  A    between atoms: _170  and  _172
REMARK   58  A    between atoms: _172  and  _173
REMARK   59  A    between atoms: _172  and  _175
REMARK   60  A    between atoms: _175  and  _176
REMARK   61  A    between atoms: _178  and  _180
REMARK   62  A    between atoms: _180  and  _181
REMARK   63  A    between atoms: _180  and  _183
REMARK   64  A    between atoms: _183  and  _184
REMARK   65  A    between atoms: _189  and  _190
REMARK   66  A    between atoms: _192  and  _194
REMARK   67  A    between atoms: _194  and  _195
REMARK   68  A    between atoms: _194  and  _197
REMARK   69  A    between atoms: _197  and  _198
REMARK   70  A    between atoms: _201  and  _203
REMARK   71  A    between atoms: _203  and  _204
REMARK   72  A    between atoms: _203  and  _206
REMARK   73  A    between atoms: _206  and  _207
REMARK   74  A    between atoms: _210  and  _212
REMARK   75  A    between atoms: _212  and  _213
REMARK   76  A    between atoms: _212  and  _215
REMARK   77  A    between atoms: _215  and  _216
REMARK   78  A    between atoms: _216  and  _217
REMARK   79  A    between atoms: _217  and  _218
REMARK   80  A    between atoms: _227  and  _229
REMARK   81  A    between atoms: _229  and  _230
REMARK   82  A    between atoms: _232  and  _234
REMARK   83  A    between atoms: _234  and  _235
REMARK   84  A    between atoms: _234  and  _237
REMARK   85  A    between atoms: _237  and  _238
REMARK   86  A    between atoms: _241  and  _243
REMARK   87  A    between atoms: _243  and  _244
REMARK   88  A    between atoms: _243  and  _246
REMARK   89  A    between atoms: _246  and  _247
REMARK   90  A    between atoms: _250  and  _252
REMARK   91  A    between atoms: _252  and  _253
REMARK   92  A    between atoms: _252  and  _255
REMARK   93  A    between atoms: _255  and  _256
REMARK   94  A    between atoms: _262  and  _264
REMARK   95  A    between atoms: _264  and  _265
REMARK   96  A    between atoms: _264  and  _267
REMARK   97  A    between atoms: _267  and  _268
REMARK   98  A    between atoms: _268  and  _269
REMARK   99  A    between atoms: _269  and  _270
REMARK  100  A    between atoms: _279  and  _281
REMARK  101  A    between atoms: _281  and  _282
REMARK  102  A    between atoms: _281  and  _284
REMARK  103  A    between atoms: _284  and  _285
REMARK  104  A    between atoms: _295  and  _297
REMARK  105  A    between atoms: _297  and  _298
REMARK  106  A    between atoms: _297  and  _300
REMARK  107  A    between atoms: _300  and  _301
REMARK  108  A    between atoms: _306  and  _308
REMARK  109  A    between atoms: _308  and  _309
REMARK  110  A    between atoms: _308  and  _311
REMARK  111  A    between atoms: _311  and  _312
REMARK  112  A    between atoms: _316  and  ZN_415
REMARK  113  A    between atoms: _317  and  _319
REMARK  114  A    between atoms: _319  and  _320
REMARK  115  A    between atoms: _319  and  _322
REMARK  116  A    between atoms: _322  and  _323
REMARK  117  A    between atoms: _326  and  _328
REMARK  118  A    between atoms: _328  and  _329
REMARK  119  A    between atoms: _331  and  _333
REMARK  120  A    between atoms: _333  and  _334
REMARK  121  A    between atoms: _333  and  _336
REMARK  122  A    between atoms: _336  and  _337
REMARK  123  A    between atoms: _340  and  _342
REMARK  124  A    between atoms: _342  and  _343
REMARK  125  A    between atoms: _342  and  _345
REMARK  126  A    between atoms: _345  and  _346
REMARK  127  A    between atoms: _349  and  _351
REMARK  128  A    between atoms: _351  and  _352
REMARK  129  A    between atoms: _355  and  _357
REMARK  130  A    between atoms: _357  and  _358
REMARK  131  A    between atoms: _357  and  _360
REMARK  132  A    between atoms: _360  and  _361
REMARK  133  A    between atoms: _366  and  _367
REMARK  134  A    between atoms: _369  and  _371
REMARK  135  A    between atoms: _371  and  _372
REMARK  136  A    between atoms: _371  and  _374
REMARK  137  A    between atoms: _374  and  _375
REMARK  138  A    between atoms: _375  and  _376
REMARK  139  A    between atoms: _379  and  _381
REMARK  140  A    between atoms: _381  and  _382
REMARK  141  A    between atoms: _381  and  _384
REMARK  142  A    between atoms: _384  and  _385
REMARK  143  A    between atoms: _385  and  _386
REMARK  144  A    between atoms: _386  and  _387
REMARK  145  A    between atoms: _396  and  _398
REMARK  146  A    between atoms: _398  and  _399
REMARK  147  A    between atoms: _401  and  _403
REMARK  148  A    between atoms: _403  and  _404
REMARK  149  A    between atoms: _403  and  _406
REMARK  150  A    between atoms: _406  and  _407
REMARK  151  A    between atoms: _410  and  _412
REMARK  152  A    between atoms: _412  and  _413
REMARK                            x       y       z     vdW  Elec       q    Type
REMARK                         _______ _______ _______ _____ _____    ______ ____
ROOT
ATOM      1  CA  GLU A   1      44.170  60.244   9.305  0.00  0.00    +0.134 C 
ENDROOT
BRANCH   1   2
ATOM      2  N   GLU A   1      43.616  59.162  10.161  0.00  0.00    -0.239 NA
ATOM      3  H   GLU A   1      43.328  59.383  11.135  0.00  0.00    +0.142 HD
ENDBRANCH   1   2
BRANCH   1   4
ATOM      4  C   GLU A   1      45.669  60.419   9.648  0.00  0.00    +0.224 C 
ATOM      5  O   GLU A   1      46.028  61.012  10.672  0.00  0.00    -0.287 OA
ENDBRANCH   1   4
BRANCH   1   6
ATOM      6  CB  GLU A   1      43.436  61.562   9.573  0.00  0.00    +0.037 C 
BRANCH   6   7
ATOM      7  CG  GLU A   1      41.889  61.490   9.282  0.00  0.00    +0.116 C 
BRANCH   7   8
ATOM      8  CD  GLU A   1      41.090  61.054  10.514  0.00  0.00    +0.365 C 
ATOM      9  OE2 GLU A   1      41.666  60.741  11.566  0.00  0.00    -0.246 OA
ATOM     10  OE1 GLU A   1      39.852  61.055  10.407  0.00  0.00    -0.246 OA
ENDBRANCH   7   8
ENDBRANCH   6   7
ENDBRANCH   1   6
TORSDOF 5
REMARK  Name = ../refined-set-2016/3ddf/3ddf_pocket.pdb
REMARK  152 active torsions:
REMARK  status: ('A' for Active; 'I' for Inactive)
REMARK    1  A    between atoms: _1  and  _3
REMARK    2  A    between atoms: _14  and  _17
REMARK    3  A    between atoms: _17  and  _18
REMARK    4  A    between atoms: _25  and  _26
REMARK    5  A    between atoms: _33  and  _34
REMARK    6  A    between atoms: _39  and  _41
REMARK    7  A    between atoms: _41  and  _42
REMARK    8  A    between atoms: _44  and  _46
REMARK    9  A    between atoms: _46  and  _47
REMARK   10  A    between atoms: _46  and  _49
REMARK   11  A    between atoms: _49  and  _50
REMARK   12  A    between atoms: _60  and  _62
REMARK   13  A    between atoms: _62  and  _63
REMARK   14  A    between atoms: _62  and  _65
REMARK   15  A    between atoms: _65  and  _66
REMARK   16  A    between atoms: _69  and  _71
REMARK   17  A    between atoms: _71  and  _72
REMARK   18  A    between atoms: _71  and  _74
REMARK   19  A    between atoms: _74  and  _75
REMARK   20  A    between atoms: _80  and  _81
REMARK   21  A    between atoms: _83  and  _85
REMARK   22  A    between atoms: _85  and  _86
REMARK   23  A    between atoms: _85  and  _88
REMARK   24  A    between atoms: _88  and  _89
REMARK   25  A    between atoms: _89  and  _90
REMARK   26  A    between atoms: _93  and  _95
REMARK   27  A    between atoms: _95  and  _96
REMARK   28  A    between atoms: _95  and  _98
REMARK   29  A    between atoms: _98  and  _99
REMARK   30  A    between atoms: _99  and  _100
REMARK   31  A    between atoms: _102  and  _104
REMARK   32  A    between atoms: _104  and  _105
REMARK   33  A    between atoms: _104  and  _107
REMARK   34  A    between atoms: _107  and  _108
REMARK   35  A    between atoms: _111  and  _113
REMARK   36  A    between atoms: _113  and  _114
REMARK   37  A    between atoms: _113  and  _116
REMARK   38  A    between atoms: _116  and  _117
REMARK   39  A    between atoms: _117  and  _118
REMARK   40  A    between atoms: _118  and  ZN_415
REMARK   41  A    between atoms: _121  and  _122
REMARK   42  A    between atoms: _127  and  _129
REMARK   43  A    between atoms: _129  and  _130
REMARK   44  A    between atoms: _129  and  _132
REMARK   45  A    between atoms: _132  and  _133
REMARK   46  A    between atoms: _139  and  _141
REMARK   47  A    between atoms: _141  and  _142
REMARK   48  A    between atoms: _141  and  _144
REMARK   49  A    between atoms: _144  and  _145
REMARK   50  A    between atoms: _145  and  _146
REMARK   51  A    between atoms: _146  and  _147
REMARK   52  A    between atoms: _156  and  _158
REMARK   53  A    between atoms: _158  and  _159
REMARK   54  A    between atoms: _158  and  _161
REMARK   55  A    between atoms: _161  and  _162
REMARK   56  A    between atoms: _167  and  _168
REMARK   57  A    between atoms: _170  and  _172
REMARK   58  A    between atoms: _172  and  _173
REMARK   59  A    between atoms: _172  and  _175
REMARK   60  A    between atoms: _175  and  _176
REMARK   61  A    between atoms: _178  and  _180
REMARK   62  A    between atoms: _180  and  _181
REMARK   63  A    between atoms: _180  and  _183
REMARK   64  A    between atoms: _183  and  _184
REMARK   65  A    between atoms: _189  and  _190
REMARK   66  A    between atoms: _192  and  _194
REMARK   67  A    between atoms: _194  and  _195
REMARK   68  A    between atoms: _194  and  _197
REMARK   69  A    between atoms: _197  and  _198
REMARK   70  A    between atoms: _201  and  _203
REMARK   71  A    between atoms: _203  and  _204
REMARK   72  A    between atoms: _203  and  _206
REMARK   73  A    between atoms: _206  and  _207
REMARK   74  A    between atoms: _210  and  _212
REMARK   75  A    between atoms: _212  and  _213
REMARK   76  A    between atoms: _212  and  _215
REMARK   77  A    between atoms: _215  and  _216
REMARK   78  A    between atoms: _216  and  _217
REMARK   79  A    between atoms: _217  and  _218
REMARK   80  A    between atoms: _227  and  _229
REMARK   81  A    between atoms: _229  and  _230
REMARK   82  A    between atoms: _232  and  _234
REMARK   83  A    between atoms: _234  and  _235
REMARK   84  A    between atoms: _234  and  _237
REMARK   85  A    between atoms: _237  and  _238
REMARK   86  A    between atoms: _241  and  _243
REMARK   87  A    between atoms: _243  and  _244
REMARK   88  A    between atoms: _243  and  _246
REMARK   89  A    between atoms: _246  and  _247
REMARK   90  A    between atoms: _250  and  _252
REMARK   91  A    between atoms: _252  and  _253
REMARK   92  A    between atoms: _252  and  _255
REMARK   93  A    between atoms: _255  and  _256
REMARK   94  A    between atoms: _262  and  _264
REMARK   95  A    between atoms: _264  and  _265
REMARK   96  A    between atoms: _264  and  _267
REMARK   97  A    between atoms: _267  and  _268
REMARK   98  A    between atoms: _268  and  _269
REMARK   99  A    between atoms: _269  and  _270
REMARK  100  A    between atoms: _279  and  _281
REMARK  101  A    between atoms: _281  and  _282
REMARK  102  A    between atoms: _281  and  _284
REMARK  103  A    between atoms: _284  and  _285
REMARK  104  A    between atoms: _295  and  _297
REMARK  105  A    between atoms: _297  and  _298
REMARK  106  A    between atoms: _297  and  _300
REMARK  107  A    between atoms: _300  and  _301
REMARK  108  A    between atoms: _306  and  _308
REMARK  109  A    between atoms: _308  and  _309
REMARK  110  A    between atoms: _308  and  _311
REMARK  111  A    between atoms: _311  and  _312
REMARK  112  A    between atoms: _316  and  ZN_415
REMARK  113  A    between atoms: _317  and  _319
REMARK  114  A    between atoms: _319  and  _320
REMARK  115  A    between atoms: _319  and  _322
REMARK  116  A    between atoms: _322  and  _323
REMARK  117  A    between atoms: _326  and  _328
REMARK  118  A    between atoms: _328  and  _329
REMARK  119  A    between atoms: _331  and  _333
REMARK  120  A    between atoms: _333  and  _334
REMARK  121  A    between atoms: _333  and  _336
REMARK  122  A    between atoms: _336  and  _337
REMARK  123  A    between atoms: _340  and  _342
REMARK  124  A    between atoms: _342  and  _343
REMARK  125  A    between atoms: _342  and  _345
REMARK  126  A    between atoms: _345  and  _346
REMARK  127  A    between atoms: _349  and  _351
REMARK  128  A    between atoms: _351  and  _352
REMARK  129  A    between atoms: _355  and  _357
REMARK  130  A    between atoms: _357  and  _358
REMARK  131  A    between atoms: _357  and  _360
REMARK  132  A    between atoms: _360  and  _361
REMARK  133  A    between atoms: _366  and  _367
REMARK  134  A    between atoms: _369  and  _371
REMARK  135  A    between atoms: _371  and  _372
REMARK  136  A    between atoms: _371  and  _374
REMARK  137  A    between atoms: _374  and  _375
REMARK  138  A    between atoms: _375  and  _376
REMARK  139  A    between atoms: _379  and  _381
REMARK  140  A    between atoms: _381  and  _382
REMARK  141  A    between atoms: _381  and  _384
REMARK  142  A    between atoms: _384  and  _385
REMARK  143  A    between atoms: _385  and  _386
REMARK  144  A    between atoms: _386  and  _387
REMARK  145  A    between atoms: _396  and  _398
REMARK  146  A    between atoms: _398  and  _399
REMARK  147  A    between atoms: _401  and  _403
REMARK  148  A    between atoms: _403  and  _404
REMARK  149  A    between atoms: _403  and  _406
REMARK  150  A    between atoms: _406  and  _407
REMARK  151  A    between atoms: _410  and  _412
REMARK  152  A    between atoms: _412  and  _413
REMARK                            x       y       z     vdW  Elec       q    Type
REMARK                         _______ _______ _______ _____ _____    ______ ____
ROOT
ATOM      1  CA  MET A   1      40.015  59.672   4.395  0.00  0.00    +0.134 C 
ENDROOT
BRANCH   1   2
ATOM      2  N   MET A   1      41.147  60.524   4.776  0.00  0.00    -0.239 NA
ATOM      3  H   MET A   1      40.929  61.429   5.240  0.00  0.00    +0.142 HD
ENDBRANCH   1   2
BRANCH   1   4
ATOM      4  C   MET A   1      39.435  60.352   3.164  0.00  0.00    +0.224 C 
ATOM      5  O   MET A   1      38.705  61.357   3.285  0.00  0.00    -0.287 OA
ENDBRANCH   1   4
BRANCH   1   6
ATOM      6  CB  MET A   1      39.025  59.609   5.557  0.00  0.00    +0.037 C 
BRANCH   6   7
ATOM      7  CG  MET A   1      37.759  58.808   5.264  0.00  0.00    +0.059 C 
BRANCH   7   8
ATOM      8  SD  MET A   1      36.557  58.909   6.610  0.00  0.00    -0.139 S 
ATOM      9  CE  MET A   1      37.518  58.170   7.943  0.00  0.00    +0.069 C 
ENDBRANCH   7   8
ENDBRANCH   6   7
ENDBRANCH   1   6
TORSDOF 5
REMARK  Name = ../refined-set-2016/3ddf/3ddf_pocket.pdb
REMARK  152 active torsions:
REMARK  status: ('A' for Active; 'I' for Inactive)
REMARK    1  A    between atoms: _1  and  _3
REMARK    2  A    between atoms: _14  and  _17
REMARK    3  A    between atoms: _17  and  _18
REMARK    4  A    between atoms: _25  and  _26
REMARK    5  A    between atoms: _33  and  _34
REMARK    6  A    between atoms: _39  and  _41
REMARK    7  A    between atoms: _41  and  _42
REMARK    8  A    between atoms: _44  and  _46
REMARK    9  A    between atoms: _46  and  _47
REMARK   10  A    between atoms: _46  and  _49
REMARK   11  A    between atoms: _49  and  _50
REMARK   12  A    between atoms: _60  and  _62
REMARK   13  A    between atoms: _62  and  _63
REMARK   14  A    between atoms: _62  and  _65
REMARK   15  A    between atoms: _65  and  _66
REMARK   16  A    between atoms: _69  and  _71
REMARK   17  A    between atoms: _71  and  _72
REMARK   18  A    between atoms: _71  and  _74
REMARK   19  A    between atoms: _74  and  _75
REMARK   20  A    between atoms: _80  and  _81
REMARK   21  A    between atoms: _83  and  _85
REMARK   22  A    between atoms: _85  and  _86
REMARK   23  A    between atoms: _85  and  _88
REMARK   24  A    between atoms: _88  and  _89
REMARK   25  A    between atoms: _89  and  _90
REMARK   26  A    between atoms: _93  and  _95
REMARK   27  A    between atoms: _95  and  _96
REMARK   28  A    between atoms: _95  and  _98
REMARK   29  A    between atoms: _98  and  _99
REMARK   30  A    between atoms: _99  and  _100
REMARK   31  A    between atoms: _102  and  _104
REMARK   32  A    between atoms: _104  and  _105
REMARK   33  A    between atoms: _104  and  _107
REMARK   34  A    between atoms: _107  and  _108
REMARK   35  A    between atoms: _111  and  _113
REMARK   36  A    between atoms: _113  and  _114
REMARK   37  A    between atoms: _113  and  _116
REMARK   38  A    between atoms: _116  and  _117
REMARK   39  A    between atoms: _117  and  _118
REMARK   40  A    between atoms: _118  and  ZN_415
REMARK   41  A    between atoms: _121  and  _122
REMARK   42  A    between atoms: _127  and  _129
REMARK   43  A    between atoms: _129  and  _130
REMARK   44  A    between atoms: _129  and  _132
REMARK   45  A    between atoms: _132  and  _133
REMARK   46  A    between atoms: _139  and  _141
REMARK   47  A    between atoms: _141  and  _142
REMARK   48  A    between atoms: _141  and  _144
REMARK   49  A    between atoms: _144  and  _145
REMARK   50  A    between atoms: _145  and  _146
REMARK   51  A    between atoms: _146  and  _147
REMARK   52  A    between atoms: _156  and  _158
REMARK   53  A    between atoms: _158  and  _159
REMARK   54  A    between atoms: _158  and  _161
REMARK   55  A    between atoms: _161  and  _162
REMARK   56  A    between atoms: _167  and  _168
REMARK   57  A    between atoms: _170  and  _172
REMARK   58  A    between atoms: _172  and  _173
REMARK   59  A    between atoms: _172  and  _175
REMARK   60  A    between atoms: _175  and  _176
REMARK   61  A    between atoms: _178  and  _180
REMARK   62  A    between atoms: _180  and  _181
REMARK   63  A    between atoms: _180  and  _183
REMARK   64  A    between atoms: _183  and  _184
REMARK   65  A    between atoms: _189  and  _190
REMARK   66  A    between atoms: _192  and  _194
REMARK   67  A    between atoms: _194  and  _195
REMARK   68  A    between atoms: _194  and  _197
REMARK   69  A    between atoms: _197  and  _198
REMARK   70  A    between atoms: _201  and  _203
REMARK   71  A    between atoms: _203  and  _204
REMARK   72  A    between atoms: _203  and  _206
REMARK   73  A    between atoms: _206  and  _207
REMARK   74  A    between atoms: _210  and  _212
REMARK   75  A    between atoms: _212  and  _213
REMARK   76  A    between atoms: _212  and  _215
REMARK   77  A    between atoms: _215  and  _216
REMARK   78  A    between atoms: _216  and  _217
REMARK   79  A    between atoms: _217  and  _218
REMARK   80  A    between atoms: _227  and  _229
REMARK   81  A    between atoms: _229  and  _230
REMARK   82  A    between atoms: _232  and  _234
REMARK   83  A    between atoms: _234  and  _235
REMARK   84  A    between atoms: _234  and  _237
REMARK   85  A    between atoms: _237  and  _238
REMARK   86  A    between atoms: _241  and  _243
REMARK   87  A    between atoms: _243  and  _244
REMARK   88  A    between atoms: _243  and  _246
REMARK   89  A    between atoms: _246  and  _247
REMARK   90  A    between atoms: _250  and  _252
REMARK   91  A    between atoms: _252  and  _253
REMARK   92  A    between atoms: _252  and  _255
REMARK   93  A    between atoms: _255  and  _256
REMARK   94  A    between atoms: _262  and  _264
REMARK   95  A    between atoms: _264  and  _265
REMARK   96  A    between atoms: _264  and  _267
REMARK   97  A    between atoms: _267  and  _268
REMARK   98  A    between atoms: _268  and  _269
REMARK   99  A    between atoms: _269  and  _270
REMARK  100  A    between atoms: _279  and  _281
REMARK  101  A    between atoms: _281  and  _282
REMARK  102  A    between atoms: _281  and  _284
REMARK  103  A    between atoms: _284  and  _285
REMARK  104  A    between atoms: _295  and  _297
REMARK  105  A    between atoms: _297  and  _298
REMARK  106  A    between atoms: _297  and  _300
REMARK  107  A    between atoms: _300  and  _301
REMARK  108  A    between atoms: _306  and  _308
REMARK  109  A    between atoms: _308  and  _309
REMARK  110  A    between atoms: _308  and  _311
REMARK  111  A    between atoms: _311  and  _312
REMARK  112  A    between atoms: _316  and  ZN_415
REMARK  113  A    between atoms: _317  and  _319
REMARK  114  A    between atoms: _319  and  _320
REMARK  115  A    between atoms: _319  and  _322
REMARK  116  A    between atoms: _322  and  _323
REMARK  117  A    between atoms: _326  and  _328
REMARK  118  A    between atoms: _328  and  _329
REMARK  119  A    between atoms: _331  and  _333
REMARK  120  A    between atoms: _333  and  _334
REMARK  121  A    between atoms: _333  and  _336
REMARK  122  A    between atoms: _336  and  _337
REMARK  123  A    between atoms: _340  and  _342
REMARK  124  A    between atoms: _342  and  _343
REMARK  125  A    between atoms: _342  and  _345
REMARK  126  A    between atoms: _345  and  _346
REMARK  127  A    between atoms: _349  and  _351
REMARK  128  A    between atoms: _351  and  _352
REMARK  129  A    between atoms: _355  and  _357
REMARK  130  A    between atoms: _357  and  _358
REMARK  131  A    between atoms: _357  and  _360
REMARK  132  A    between atoms: _360  and  _361
REMARK  133  A    between atoms: _366  and  _367
REMARK  134  A    between atoms: _369  and  _371
REMARK  135  A    between atoms: _371  and  _372
REMARK  136  A    between atoms: _371  and  _374
REMARK  137  A    between atoms: _374  and  _375
REMARK  138  A    between atoms: _375  and  _376
REMARK  139  A    between atoms: _379  and  _381
REMARK  140  A    between atoms: _381  and  _382
REMARK  141  A    between atoms: _381  and  _384
REMARK  142  A    between atoms: _384  and  _385
REMARK  143  A    between atoms: _385  and  _386
REMARK  144  A    between atoms: _386  and  _387
REMARK  145  A    between atoms: _396  and  _398
REMARK  146  A    between atoms: _398  and  _399
REMARK  147  A    between atoms: _401  and  _403
REMARK  148  A    between atoms: _403  and  _404
REMARK  149  A    between atoms: _403  and  _406
REMARK  150  A    between atoms: _406  and  _407
REMARK  151  A    between atoms: _410  and  _412
REMARK  152  A    between atoms: _412  and  _413
REMARK                            x       y       z     vdW  Elec       q    Type
REMARK                         _______ _______ _______ _____ _____    ______ ____
ROOT
ATOM      1  NE  ARG A   1      28.680  61.516   5.665  0.00  0.00    -0.265 N 
ATOM      2  CZ  ARG A   1      27.836  62.292   6.322  0.00  0.00    +0.342 C 
ATOM      3  NH2 ARG A   1      28.308  63.149   7.225  0.00  0.00    -0.292 N 
ATOM      4 HH21 ARG A   1      27.654  63.765   7.749  0.00  0.00    +0.255 HD
ATOM      5 HH22 ARG A   1      29.331  63.202   7.407  0.00  0.00    +0.255 HD
ATOM      6  NH1 ARG A   1      26.511  62.208   6.104  0.00  0.00    -0.292 N 
ATOM      7 HH11 ARG A   1      25.858  62.825   6.628  0.00  0.00    +0.255 HD
ATOM      8 HH12 ARG A   1      26.140  61.526   5.412  0.00  0.00    +0.255 HD
ATOM      9  HE  ARG A   1      29.675  61.571   5.963  0.00  0.00    +0.259 HD
ENDROOT
BRANCH   1  10
ATOM     10  CD  ARG A   1      28.396  60.610   4.596  0.00  0.00    +0.174 C 
BRANCH  10  11
ATOM     11  CG  ARG A   1      28.046  59.199   4.903  0.00  0.00    +0.045 C 
BRANCH  11  12
ATOM     12  CB  ARG A   1      27.878  58.397   3.617  0.00  0.00    +0.029 C 
BRANCH  12  13
ATOM     13  CA  ARG A   1      27.259  57.019   3.822  0.00  0.00    +0.133 C 
BRANCH  13  14
ATOM     14  N   ARG A   1      28.227  56.092   4.428  0.00  0.00    -0.239 NA
ATOM     15  H   ARG A   1      29.241  56.196   4.222  0.00  0.00    +0.142 HD
ENDBRANCH  13  14
BRANCH  13  16
ATOM     16  C   ARG A   1      26.748  56.440   2.515  0.00  0.00    +0.224 C 
ATOM     17  O   ARG A   1      27.279  56.692   1.442  0.00  0.00    -0.287 OA
ENDBRANCH  13  16
ENDBRANCH  12  13
ENDBRANCH  11  12
ENDBRANCH  10  11
ENDBRANCH   1  10
TORSDOF 6
REMARK  Name = ../refined-set-2016/3ddf/3ddf_pocket.pdb
REMARK  152 active torsions:
REMARK  status: ('A' for Active; 'I' for Inactive)
REMARK    1  A    between atoms: _1  and  _3
REMARK    2  A    between atoms: _14  and  _17
REMARK    3  A    between atoms: _17  and  _18
REMARK    4  A    between atoms: _25  and  _26
REMARK    5  A    between atoms: _33  and  _34
REMARK    6  A    between atoms: _39  and  _41
REMARK    7  A    between atoms: _41  and  _42
REMARK    8  A    between atoms: _44  and  _46
REMARK    9  A    between atoms: _46  and  _47
REMARK   10  A    between atoms: _46  and  _49
REMARK   11  A    between atoms: _49  and  _50
REMARK   12  A    between atoms: _60  and  _62
REMARK   13  A    between atoms: _62  and  _63
REMARK   14  A    between atoms: _62  and  _65
REMARK   15  A    between atoms: _65  and  _66
REMARK   16  A    between atoms: _69  and  _71
REMARK   17  A    between atoms: _71  and  _72
REMARK   18  A    between atoms: _71  and  _74
REMARK   19  A    between atoms: _74  and  _75
REMARK   20  A    between atoms: _80  and  _81
REMARK   21  A    between atoms: _83  and  _85
REMARK   22  A    between atoms: _85  and  _86
REMARK   23  A    between atoms: _85  and  _88
REMARK   24  A    between atoms: _88  and  _89
REMARK   25  A    between atoms: _89  and  _90
REMARK   26  A    between atoms: _93  and  _95
REMARK   27  A    between atoms: _95  and  _96
REMARK   28  A    between atoms: _95  and  _98
REMARK   29  A    between atoms: _98  and  _99
REMARK   30  A    between atoms: _99  and  _100
REMARK   31  A    between atoms: _102  and  _104
REMARK   32  A    between atoms: _104  and  _105
REMARK   33  A    between atoms: _104  and  _107
REMARK   34  A    between atoms: _107  and  _108
REMARK   35  A    between atoms: _111  and  _113
REMARK   36  A    between atoms: _113  and  _114
REMARK   37  A    between atoms: _113  and  _116
REMARK   38  A    between atoms: _116  and  _117
REMARK   39  A    between atoms: _117  and  _118
REMARK   40  A    between atoms: _118  and  ZN_415
REMARK   41  A    between atoms: _121  and  _122
REMARK   42  A    between atoms: _127  and  _129
REMARK   43  A    between atoms: _129  and  _130
REMARK   44  A    between atoms: _129  and  _132
REMARK   45  A    between atoms: _132  and  _133
REMARK   46  A    between atoms: _139  and  _141
REMARK   47  A    between atoms: _141  and  _142
REMARK   48  A    between atoms: _141  and  _144
REMARK   49  A    between atoms: _144  and  _145
REMARK   50  A    between atoms: _145  and  _146
REMARK   51  A    between atoms: _146  and  _147
REMARK   52  A    between atoms: _156  and  _158
REMARK   53  A    between atoms: _158  and  _159
REMARK   54  A    between atoms: _158  and  _161
REMARK   55  A    between atoms: _161  and  _162
REMARK   56  A    between atoms: _167  and  _168
REMARK   57  A    between atoms: _170  and  _172
REMARK   58  A    between atoms: _172  and  _173
REMARK   59  A    between atoms: _172  and  _175
REMARK   60  A    between atoms: _175  and  _176
REMARK   61  A    between atoms: _178  and  _180
REMARK   62  A    between atoms: _180  and  _181
REMARK   63  A    between atoms: _180  and  _183
REMARK   64  A    between atoms: _183  and  _184
REMARK   65  A    between atoms: _189  and  _190
REMARK   66  A    between atoms: _192  and  _194
REMARK   67  A    between atoms: _194  and  _195
REMARK   68  A    between atoms: _194  and  _197
REMARK   69  A    between atoms: _197  and  _198
REMARK   70  A    between atoms: _201  and  _203
REMARK   71  A    between atoms: _203  and  _204
REMARK   72  A    between atoms: _203  and  _206
REMARK   73  A    between atoms: _206  and  _207
REMARK   74  A    between atoms: _210  and  _212
REMARK   75  A    between atoms: _212  and  _213
REMARK   76  A    between atoms: _212  and  _215
REMARK   77  A    between atoms: _215  and  _216
REMARK   78  A    between atoms: _216  and  _217
REMARK   79  A    between atoms: _217  and  _218
REMARK   80  A    between atoms: _227  and  _229
REMARK   81  A    between atoms: _229  and  _230
REMARK   82  A    between atoms: _232  and  _234
REMARK   83  A    between atoms: _234  and  _235
REMARK   84  A    between atoms: _234  and  _237
REMARK   85  A    between atoms: _237  and  _238
REMARK   86  A    between atoms: _241  and  _243
REMARK   87  A    between atoms: _243  and  _244
REMARK   88  A    between atoms: _243  and  _246
REMARK   89  A    between atoms: _246  and  _247
REMARK   90  A    between atoms: _250  and  _252
REMARK   91  A    between atoms: _252  and  _253
REMARK   92  A    between atoms: _252  and  _255
REMARK   93  A    between atoms: _255  and  _256
REMARK   94  A    between atoms: _262  and  _264
REMARK   95  A    between atoms: _264  and  _265
REMARK   96  A    between atoms: _264  and  _267
REMARK   97  A    between atoms: _267  and  _268
REMARK   98  A    between atoms: _268  and  _269
REMARK   99  A    between atoms: _269  and  _270
REMARK  100  A    between atoms: _279  and  _281
REMARK  101  A    between atoms: _281  and  _282
REMARK  102  A    between atoms: _281  and  _284
REMARK  103  A    between atoms: _284  and  _285
REMARK  104  A    between atoms: _295  and  _297
REMARK  105  A    between atoms: _297  and  _298
REMARK  106  A    between atoms: _297  and  _300
REMARK  107  A    between atoms: _300  and  _301
REMARK  108  A    between atoms: _306  and  _308
REMARK  109  A    between atoms: _308  and  _309
REMARK  110  A    between atoms: _308  and  _311
REMARK  111  A    between atoms: _311  and  _312
REMARK  112  A    between atoms: _316  and  ZN_415
REMARK  113  A    between atoms: _317  and  _319
REMARK  114  A    between atoms: _319  and  _320
REMARK  115  A    between atoms: _319  and  _322
REMARK  116  A    between atoms: _322  and  _323
REMARK  117  A    between atoms: _326  and  _328
REMARK  118  A    between atoms: _328  and  _329
REMARK  119  A    between atoms: _331  and  _333
REMARK  120  A    between atoms: _333  and  _334
REMARK  121  A    between atoms: _333  and  _336
REMARK  122  A    between atoms: _336  and  _337
REMARK  123  A    between atoms: _340  and  _342
REMARK  124  A    between atoms: _342  and  _343
REMARK  125  A    between atoms: _342  and  _345
REMARK  126  A    between atoms: _345  and  _346
REMARK  127  A    between atoms: _349  and  _351
REMARK  128  A    between atoms: _351  and  _352
REMARK  129  A    between atoms: _355  and  _357
REMARK  130  A    between atoms: _357  and  _358
REMARK  131  A    between atoms: _357  and  _360
REMARK  132  A    between atoms: _360  and  _361
REMARK  133  A    between atoms: _366  and  _367
REMARK  134  A    between atoms: _369  and  _371
REMARK  135  A    between atoms: _371  and  _372
REMARK  136  A    between atoms: _371  and  _374
REMARK  137  A    between atoms: _374  and  _375
REMARK  138  A    between atoms: _375  and  _376
REMARK  139  A    between atoms: _379  and  _381
REMARK  140  A    between atoms: _381  and  _382
REMARK  141  A    between atoms: _381  and  _384
REMARK  142  A    between atoms: _384  and  _385
REMARK  143  A    between atoms: _385  and  _386
REMARK  144  A    between atoms: _386  and  _387
REMARK  145  A    between atoms: _396  and  _398
REMARK  146  A    between atoms: _398  and  _399
REMARK  147  A    between atoms: _401  and  _403
REMARK  148  A    between atoms: _403  and  _404
REMARK  149  A    between atoms: _403  and  _406
REMARK  150  A    between atoms: _406  and  _407
REMARK  151  A    between atoms: _410  and  _412
REMARK  152  A    between atoms: _412  and  _413
REMARK                            x       y       z     vdW  Elec       q    Type
REMARK                         _______ _______ _______ _____ _____    ______ ____
ROOT
ATOM      1  CA  TYR A   3      28.462  57.228  12.600  0.00  0.00    +0.153 C 
ENDROOT
BRANCH   1   4
ATOM      2  C   SER A   2      26.177  57.502  11.775  0.00  0.00    +0.243 C 
ATOM      3  O   SER A   2      25.790  56.433  12.257  0.00  0.00    -0.273 OA
ATOM      4  N   TYR A   3      27.447  57.907  11.818  0.00  0.00    -0.297 N 
ATOM      5  H   TYR A   3      27.721  58.746  11.267  0.00  0.00    +0.150 HD
BRANCH   2   6
ATOM      6  CA  SER A   2      25.206  58.477  11.160  0.00  0.00    +0.178 C 
BRANCH   6   8
ATOM      7  C   TYR A   1      23.257  58.099   9.758  0.00  0.00    +0.239 C 
ATOM      8  N   SER A   2      23.954  57.806  10.852  0.00  0.00    -0.295 N 
ATOM      9  H   SER A   2      23.594  57.079  11.503  0.00  0.00    +0.150 HD
ATOM     10  O   TYR A   1      23.625  58.883   8.905  0.00  0.00    -0.274 OA
BRANCH   7  11
ATOM     11  CA  TYR A   1      21.875  57.372   9.573  0.00  0.00    +0.149 C 
BRANCH  11  12
ATOM     12  N   TYR A   1      21.824  56.079  10.241  0.00  0.00    -0.238 NA
ATOM     13  H   TYR A   1      21.267  55.976  11.114  0.00  0.00    +0.142 HD
ENDBRANCH  11  12
BRANCH  11  14
ATOM     14  CB  TYR A   1      20.714  58.234  10.096  0.00  0.00    +0.053 C 
BRANCH  14  15
ATOM     15  CG  TYR A   1      20.854  59.738   9.962  0.00  0.00    -0.020 A 
ATOM     16  CD2 TYR A   1      21.315  60.479  11.028  0.00  0.00    -0.001 A 
ATOM     17  CE2 TYR A   1      21.417  61.851  10.992  0.00  0.00    +0.036 A 
ATOM     18  CZ  TYR A   1      21.072  62.523   9.850  0.00  0.00    +0.134 A 
ATOM     19  CE1 TYR A   1      20.630  61.822   8.751  0.00  0.00    +0.036 A 
ATOM     20  CD1 TYR A   1      20.509  60.409   8.802  0.00  0.00    -0.001 A 
BRANCH  18  21
ATOM     21  OH  TYR A   1      21.176  63.879   9.811  0.00  0.00    -0.506 OA
ATOM     22  HH  TYR A   1      20.890  64.205   8.921  0.00  0.00    +0.292 HD
ENDBRANCH  18  21
ENDBRANCH  14  15
ENDBRANCH  11  14
ENDBRANCH   7  11
ENDBRANCH   6   8
BRANCH   6  23
ATOM     23  CB  SER A   2      24.961  59.666  12.094  0.00  0.00    +0.166 C 
BRANCH  23  24
ATOM     24  OG  SER A   2      26.098  60.367  12.459  0.00  0.00    -0.380 OA
ATOM     25  H   SER A   2      25.846  61.113  13.059  0.00  0.00    +0.211 HD
ENDBRANCH  23  24
ENDBRANCH   6  23
ENDBRANCH   2   6
ENDBRANCH   1   4
BRANCH   1  26
ATOM     26  C   TYR A   3      28.558  57.681  14.044  0.00  0.00    +0.241 C 
ATOM     27  O   TYR A   3      29.423  57.227  14.809  0.00  0.00    -0.273 OA
ATOM     28  N   ASP A   4      27.807  58.652  14.496  0.00  0.00    -0.297 N 
ATOM     29  H   ASP A   4      27.125  59.061  13.826  0.00  0.00    +0.150 HD
BRANCH  28  30
ATOM     30  CA  ASP A   4      27.824  59.216  15.824  0.00  0.00    +0.160 C 
BRANCH  30  31
ATOM     31  C   ASP A   4      27.248  58.210  16.795  0.00  0.00    +0.241 C 
ATOM     32  N   ILE A   5      27.434  58.473  18.098  0.00  0.00    -0.298 N 
ATOM     33  H   ILE A   5      27.860  59.373  18.398  0.00  0.00    +0.150 HD
ATOM     34  O   ASP A   4      26.656  57.183  16.413  0.00  0.00    -0.273 OA
BRANCH  32  35
ATOM     35  CA  ILE A   5      27.022  57.459  19.108  0.00  0.00    +0.137 C 
BRANCH  35  36
ATOM     36  C   ILE A   5      25.524  57.205  19.068  0.00  0.00    +0.227 C 
ATOM     37  O   ILE A   5      25.100  56.024  19.122  0.00  0.00    -0.286 OA
ENDBRANCH  35  36
BRANCH  35  38
ATOM     38  CB  ILE A   5      27.599  57.791  20.482  0.00  0.00    +0.026 C 
ATOM     39  CG2 ILE A   5      27.046  56.877  21.548  0.00  0.00    +0.002 C 
BRANCH  38  40
ATOM     40  CG1 ILE A   5      29.128  57.689  20.406  0.00  0.00    +0.002 C 
ATOM     41  CD1 ILE A   5      29.846  58.291  21.575  0.00  0.00    +0.000 C 
ENDBRANCH  38  40
ENDBRANCH  35  38
ENDBRANCH  32  35
ENDBRANCH  30  31
BRANCH  30  42
ATOM     42  CB  ASP A   4      27.115  60.572  15.865  0.00  0.00    +0.143 C 
BRANCH  42  43
ATOM     43  CG  ASP A   4      25.644  60.631  15.669  0.00  0.00    +0.367 C 
ATOM     44  OD2 ASP A   4      25.114  61.785  15.573  0.00  0.00    -0.246 OA
ATOM     45  OD1 ASP A   4      24.981  59.576  15.570  0.00  0.00    -0.246 OA
ENDBRANCH  42  43
ENDBRANCH  30  42
ENDBRANCH  28  30
ENDBRANCH   1  26
BRANCH   1  46
ATOM     46  CB  TYR A   3      29.875  57.368  11.971  0.00  0.00    +0.055 C 
BRANCH  46  47
ATOM     47  CG  TYR A   3      30.284  58.810  11.712  0.00  0.00    -0.020 A 
ATOM     48  CD2 TYR A   3      30.755  59.638  12.737  0.00  0.00    -0.001 A 
ATOM     49  CE2 TYR A   3      31.119  60.934  12.503  0.00  0.00    +0.036 A 
ATOM     50  CZ  TYR A   3      31.047  61.459  11.264  0.00  0.00    +0.134 A 
ATOM     51  CE1 TYR A   3      30.589  60.677  10.189  0.00  0.00    +0.036 A 
ATOM     52  CD1 TYR A   3      30.209  59.362  10.439  0.00  0.00    -0.001 A 
BRANCH  50  53
ATOM     53  OH  TYR A   3      31.413  62.757  10.974  0.00  0.00    -0.506 OA
ATOM     54  HH  TYR A   3      31.716  63.206  11.803  0.00  0.00    +0.292 HD
ENDBRANCH  50  53
ENDBRANCH  46  47
ENDBRANCH   1  46
TORSDOF 22
REMARK  Name = ../refined-set-2016/3ddf/3ddf_pocket.pdb
REMARK  152 active torsions:
REMARK  status: ('A' for Active; 'I' for Inactive)
REMARK    1  A    between atoms: _1  and  _3
REMARK    2  A    between atoms: _14  and  _17
REMARK    3  A    between atoms: _17  and  _18
REMARK    4  A    between atoms: _25  and  _26
REMARK    5  A    between atoms: _33  and  _34
REMARK    6  A    between atoms: _39  and  _41
REMARK    7  A    between atoms: _41  and  _42
REMARK    8  A    between atoms: _44  and  _46
REMARK    9  A    between atoms: _46  and  _47
REMARK   10  A    between atoms: _46  and  _49
REMARK   11  A    between atoms: _49  and  _50
REMARK   12  A    between atoms: _60  and  _62
REMARK   13  A    between atoms: _62  and  _63
REMARK   14  A    between atoms: _62  and  _65
REMARK   15  A    between atoms: _65  and  _66
REMARK   16  A    between atoms: _69  and  _71
REMARK   17  A    between atoms: _71  and  _72
REMARK   18  A    between atoms: _71  and  _74
REMARK   19  A    between atoms: _74  and  _75
REMARK   20  A    between atoms: _80  and  _81
REMARK   21  A    between atoms: _83  and  _85
REMARK   22  A    between atoms: _85  and  _86
REMARK   23  A    between atoms: _85  and  _88
REMARK   24  A    between atoms: _88  and  _89
REMARK   25  A    between atoms: _89  and  _90
REMARK   26  A    between atoms: _93  and  _95
REMARK   27  A    between atoms: _95  and  _96
REMARK   28  A    between atoms: _95  and  _98
REMARK   29  A    between atoms: _98  and  _99
REMARK   30  A    between atoms: _99  and  _100
REMARK   31  A    between atoms: _102  and  _104
REMARK   32  A    between atoms: _104  and  _105
REMARK   33  A    between atoms: _104  and  _107
REMARK   34  A    between atoms: _107  and  _108
REMARK   35  A    between atoms: _111  and  _113
REMARK   36  A    between atoms: _113  and  _114
REMARK   37  A    between atoms: _113  and  _116
REMARK   38  A    between atoms: _116  and  _117
REMARK   39  A    between atoms: _117  and  _118
REMARK   40  A    between atoms: _118  and  ZN_415
REMARK   41  A    between atoms: _121  and  _122
REMARK   42  A    between atoms: _127  and  _129
REMARK   43  A    between atoms: _129  and  _130
REMARK   44  A    between atoms: _129  and  _132
REMARK   45  A    between atoms: _132  and  _133
REMARK   46  A    between atoms: _139  and  _141
REMARK   47  A    between atoms: _141  and  _142
REMARK   48  A    between atoms: _141  and  _144
REMARK   49  A    between atoms: _144  and  _145
REMARK   50  A    between atoms: _145  and  _146
REMARK   51  A    between atoms: _146  and  _147
REMARK   52  A    between atoms: _156  and  _158
REMARK   53  A    between atoms: _158  and  _159
REMARK   54  A    between atoms: _158  and  _161
REMARK   55  A    between atoms: _161  and  _162
REMARK   56  A    between atoms: _167  and  _168
REMARK   57  A    between atoms: _170  and  _172
REMARK   58  A    between atoms: _172  and  _173
REMARK   59  A    between atoms: _172  and  _175
REMARK   60  A    between atoms: _175  and  _176
REMARK   61  A    between atoms: _178  and  _180
REMARK   62  A    between atoms: _180  and  _181
REMARK   63  A    between atoms: _180  and  _183
REMARK   64  A    between atoms: _183  and  _184
REMARK   65  A    between atoms: _189  and  _190
REMARK   66  A    between atoms: _192  and  _194
REMARK   67  A    between atoms: _194  and  _195
REMARK   68  A    between atoms: _194  and  _197
REMARK   69  A    between atoms: _197  and  _198
REMARK   70  A    between atoms: _201  and  _203
REMARK   71  A    between atoms: _203  and  _204
REMARK   72  A    between atoms: _203  and  _206
REMARK   73  A    between atoms: _206  and  _207
REMARK   74  A    between atoms: _210  and  _212
REMARK   75  A    between atoms: _212  and  _213
REMARK   76  A    between atoms: _212  and  _215
REMARK   77  A    between atoms: _215  and  _216
REMARK   78  A    between atoms: _216  and  _217
REMARK   79  A    between atoms: _217  and  _218
REMARK   80  A    between atoms: _227  and  _229
REMARK   81  A    between atoms: _229  and  _230
REMARK   82  A    between atoms: _232  and  _234
REMARK   83  A    between atoms: _234  and  _235
REMARK   84  A    between atoms: _234  and  _237
REMARK   85  A    between atoms: _237  and  _238
REMARK   86  A    between atoms: _241  and  _243
REMARK   87  A    between atoms: _243  and  _244
REMARK   88  A    between atoms: _243  and  _246
REMARK   89  A    between atoms: _246  and  _247
REMARK   90  A    between atoms: _250  and  _252
REMARK   91  A    between atoms: _252  and  _253
REMARK   92  A    between atoms: _252  and  _255
REMARK   93  A    between atoms: _255  and  _256
REMARK   94  A    between atoms: _262  and  _264
REMARK   95  A    between atoms: _264  and  _265
REMARK   96  A    between atoms: _264  and  _267
REMARK   97  A    between atoms: _267  and  _268
REMARK   98  A    between atoms: _268  and  _269
REMARK   99  A    between atoms: _269  and  _270
REMARK  100  A    between atoms: _279  and  _281
REMARK  101  A    between atoms: _281  and  _282
REMARK  102  A    between atoms: _281  and  _284
REMARK  103  A    between atoms: _284  and  _285
REMARK  104  A    between atoms: _295  and  _297
REMARK  105  A    between atoms: _297  and  _298
REMARK  106  A    between atoms: _297  and  _300
REMARK  107  A    between atoms: _300  and  _301
REMARK  108  A    between atoms: _306  and  _308
REMARK  109  A    between atoms: _308  and  _309
REMARK  110  A    between atoms: _308  and  _311
REMARK  111  A    between atoms: _311  and  _312
REMARK  112  A    between atoms: _316  and  ZN_415
REMARK  113  A    between atoms: _317  and  _319
REMARK  114  A    between atoms: _319  and  _320
REMARK  115  A    between atoms: _319  and  _322
REMARK  116  A    between atoms: _322  and  _323
REMARK  117  A    between atoms: _326  and  _328
REMARK  118  A    between atoms: _328  and  _329
REMARK  119  A    between atoms: _331  and  _333
REMARK  120  A    between atoms: _333  and  _334
REMARK  121  A    between atoms: _333  and  _336
REMARK  122  A    between atoms: _336  and  _337
REMARK  123  A    between atoms: _340  and  _342
REMARK  124  A    between atoms: _342  and  _343
REMARK  125  A    between atoms: _342  and  _345
REMARK  126  A    between atoms: _345  and  _346
REMARK  127  A    between atoms: _349  and  _351
REMARK  128  A    between atoms: _351  and  _352
REMARK  129  A    between atoms: _355  and  _357
REMARK  130  A    between atoms: _357  and  _358
REMARK  131  A    between atoms: _357  and  _360
REMARK  132  A    between atoms: _360  and  _361
REMARK  133  A    between atoms: _366  and  _367
REMARK  134  A    between atoms: _369  and  _371
REMARK  135  A    between atoms: _371  and  _372
REMARK  136  A    between atoms: _371  and  _374
REMARK  137  A    between atoms: _374  and  _375
REMARK  138  A    between atoms: _375  and  _376
REMARK  139  A    between atoms: _379  and  _381
REMARK  140  A    between atoms: _381  and  _382
REMARK  141  A    between atoms: _381  and  _384
REMARK  142  A    between atoms: _384  and  _385
REMARK  143  A    between atoms: _385  and  _386
REMARK  144  A    between atoms: _386  and  _387
REMARK  145  A    between atoms: _396  and  _398
REMARK  146  A    between atoms: _398  and  _399
REMARK  147  A    between atoms: _401  and  _403
REMARK  148  A    between atoms: _403  and  _404
REMARK  149  A    between atoms: _403  and  _406
REMARK  150  A    between atoms: _406  and  _407
REMARK  151  A    between atoms: _410  and  _412
REMARK  152  A    between atoms: _412  and  _413
REMARK                            x       y       z     vdW  Elec       q    Type
REMARK                         _______ _______ _______ _____ _____    ______ ____
ROOT
ATOM      1  NE  ARG A   1      25.578  63.074  21.987  0.00  0.00    -0.265 N 
ATOM      2  HE  ARG A   1      26.356  62.388  21.916  0.00  0.00    +0.259 HD
ATOM      3  CZ  ARG A   1      25.109  63.591  20.859  0.00  0.00    +0.342 C 
ATOM      4  NH2 ARG A   1      24.137  64.491  20.859  0.00  0.00    -0.292 N 
ATOM      5 HH21 ARG A   1      23.723  64.809  21.758  0.00  0.00    +0.255 HD
ATOM      6 HH22 ARG A   1      23.788  64.880  19.960  0.00  0.00    +0.255 HD
ATOM      7  NH1 ARG A   1      25.634  63.177  19.703  0.00  0.00    -0.292 N 
ATOM      8 HH11 ARG A   1      26.392  62.465  19.702  0.00  0.00    +0.255 HD
ATOM      9 HH12 ARG A   1      25.284  63.566  18.804  0.00  0.00    +0.255 HD
ENDROOT
BRANCH   1  10
ATOM     10  CD  ARG A   1      25.084  63.396  23.312  0.00  0.00    +0.174 C 
BRANCH  10  11
ATOM     11  CG  ARG A   1      26.061  63.792  24.343  0.00  0.00    +0.045 C 
BRANCH  11  12
ATOM     12  CB  ARG A   1      25.418  63.883  25.711  0.00  0.00    +0.029 C 
BRANCH  12  13
ATOM     13  CA  ARG A   1      26.358  64.545  26.718  0.00  0.00    +0.133 C 
BRANCH  13  14
ATOM     14  N   ARG A   1      27.520  63.670  26.877  0.00  0.00    -0.239 NA
ATOM     15  H   ARG A   1      27.387  62.644  26.978  0.00  0.00    +0.142 HD
ENDBRANCH  13  14
BRANCH  13  16
ATOM     16  C   ARG A   1      25.675  64.859  28.041  0.00  0.00    +0.224 C 
ATOM     17  O   ARG A   1      24.445  65.071  27.997  0.00  0.00    -0.287 OA
ENDBRANCH  13  16
ENDBRANCH  12  13
ENDBRANCH  11  12
ENDBRANCH  10  11
ENDBRANCH   1  10
TORSDOF 6
REMARK  Name = ../refined-set-2016/3ddf/3ddf_pocket.pdb
REMARK  152 active torsions:
REMARK  status: ('A' for Active; 'I' for Inactive)
REMARK    1  A    between atoms: _1  and  _3
REMARK    2  A    between atoms: _14  and  _17
REMARK    3  A    between atoms: _17  and  _18
REMARK    4  A    between atoms: _25  and  _26
REMARK    5  A    between atoms: _33  and  _34
REMARK    6  A    between atoms: _39  and  _41
REMARK    7  A    between atoms: _41  and  _42
REMARK    8  A    between atoms: _44  and  _46
REMARK    9  A    between atoms: _46  and  _47
REMARK   10  A    between atoms: _46  and  _49
REMARK   11  A    between atoms: _49  and  _50
REMARK   12  A    between atoms: _60  and  _62
REMARK   13  A    between atoms: _62  and  _63
REMARK   14  A    between atoms: _62  and  _65
REMARK   15  A    between atoms: _65  and  _66
REMARK   16  A    between atoms: _69  and  _71
REMARK   17  A    between atoms: _71  and  _72
REMARK   18  A    between atoms: _71  and  _74
REMARK   19  A    between atoms: _74  and  _75
REMARK   20  A    between atoms: _80  and  _81
REMARK   21  A    between atoms: _83  and  _85
REMARK   22  A    between atoms: _85  and  _86
REMARK   23  A    between atoms: _85  and  _88
REMARK   24  A    between atoms: _88  and  _89
REMARK   25  A    between atoms: _89  and  _90
REMARK   26  A    between atoms: _93  and  _95
REMARK   27  A    between atoms: _95  and  _96
REMARK   28  A    between atoms: _95  and  _98
REMARK   29  A    between atoms: _98  and  _99
REMARK   30  A    between atoms: _99  and  _100
REMARK   31  A    between atoms: _102  and  _104
REMARK   32  A    between atoms: _104  and  _105
REMARK   33  A    between atoms: _104  and  _107
REMARK   34  A    between atoms: _107  and  _108
REMARK   35  A    between atoms: _111  and  _113
REMARK   36  A    between atoms: _113  and  _114
REMARK   37  A    between atoms: _113  and  _116
REMARK   38  A    between atoms: _116  and  _117
REMARK   39  A    between atoms: _117  and  _118
REMARK   40  A    between atoms: _118  and  ZN_415
REMARK   41  A    between atoms: _121  and  _122
REMARK   42  A    between atoms: _127  and  _129
REMARK   43  A    between atoms: _129  and  _130
REMARK   44  A    between atoms: _129  and  _132
REMARK   45  A    between atoms: _132  and  _133
REMARK   46  A    between atoms: _139  and  _141
REMARK   47  A    between atoms: _141  and  _142
REMARK   48  A    between atoms: _141  and  _144
REMARK   49  A    between atoms: _144  and  _145
REMARK   50  A    between atoms: _145  and  _146
REMARK   51  A    between atoms: _146  and  _147
REMARK   52  A    between atoms: _156  and  _158
REMARK   53  A    between atoms: _158  and  _159
REMARK   54  A    between atoms: _158  and  _161
REMARK   55  A    between atoms: _161  and  _162
REMARK   56  A    between atoms: _167  and  _168
REMARK   57  A    between atoms: _170  and  _172
REMARK   58  A    between atoms: _172  and  _173
REMARK   59  A    between atoms: _172  and  _175
REMARK   60  A    between atoms: _175  and  _176
REMARK   61  A    between atoms: _178  and  _180
REMARK   62  A    between atoms: _180  and  _181
REMARK   63  A    between atoms: _180  and  _183
REMARK   64  A    between atoms: _183  and  _184
REMARK   65  A    between atoms: _189  and  _190
REMARK   66  A    between atoms: _192  and  _194
REMARK   67  A    between atoms: _194  and  _195
REMARK   68  A    between atoms: _194  and  _197
REMARK   69  A    between atoms: _197  and  _198
REMARK   70  A    between atoms: _201  and  _203
REMARK   71  A    between atoms: _203  and  _204
REMARK   72  A    between atoms: _203  and  _206
REMARK   73  A    between atoms: _206  and  _207
REMARK   74  A    between atoms: _210  and  _212
REMARK   75  A    between atoms: _212  and  _213
REMARK   76  A    between atoms: _212  and  _215
REMARK   77  A    between atoms: _215  and  _216
REMARK   78  A    between atoms: _216  and  _217
REMARK   79  A    between atoms: _217  and  _218
REMARK   80  A    between atoms: _227  and  _229
REMARK   81  A    between atoms: _229  and  _230
REMARK   82  A    between atoms: _232  and  _234
REMARK   83  A    between atoms: _234  and  _235
REMARK   84  A    between atoms: _234  and  _237
REMARK   85  A    between atoms: _237  and  _238
REMARK   86  A    between atoms: _241  and  _243
REMARK   87  A    between atoms: _243  and  _244
REMARK   88  A    between atoms: _243  and  _246
REMARK   89  A    between atoms: _246  and  _247
REMARK   90  A    between atoms: _250  and  _252
REMARK   91  A    between atoms: _252  and  _253
REMARK   92  A    between atoms: _252  and  _255
REMARK   93  A    between atoms: _255  and  _256
REMARK   94  A    between atoms: _262  and  _264
REMARK   95  A    between atoms: _264  and  _265
REMARK   96  A    between atoms: _264  and  _267
REMARK   97  A    between atoms: _267  and  _268
REMARK   98  A    between atoms: _268  and  _269
REMARK   99  A    between atoms: _269  and  _270
REMARK  100  A    between atoms: _279  and  _281
REMARK  101  A    between atoms: _281  and  _282
REMARK  102  A    between atoms: _281  and  _284
REMARK  103  A    between atoms: _284  and  _285
REMARK  104  A    between atoms: _295  and  _297
REMARK  105  A    between atoms: _297  and  _298
REMARK  106  A    between atoms: _297  and  _300
REMARK  107  A    between atoms: _300  and  _301
REMARK  108  A    between atoms: _306  and  _308
REMARK  109  A    between atoms: _308  and  _309
REMARK  110  A    between atoms: _308  and  _311
REMARK  111  A    between atoms: _311  and  _312
REMARK  112  A    between atoms: _316  and  ZN_415
REMARK  113  A    between atoms: _317  and  _319
REMARK  114  A    between atoms: _319  and  _320
REMARK  115  A    between atoms: _319  and  _322
REMARK  116  A    between atoms: _322  and  _323
REMARK  117  A    between atoms: _326  and  _328
REMARK  118  A    between atoms: _328  and  _329
REMARK  119  A    between atoms: _331  and  _333
REMARK  120  A    between atoms: _333  and  _334
REMARK  121  A    between atoms: _333  and  _336
REMARK  122  A    between atoms: _336  and  _337
REMARK  123  A    between atoms: _340  and  _342
REMARK  124  A    between atoms: _342  and  _343
REMARK  125  A    between atoms: _342  and  _345
REMARK  126  A    between atoms: _345  and  _346
REMARK  127  A    between atoms: _349  and  _351
REMARK  128  A    between atoms: _351  and  _352
REMARK  129  A    between atoms: _355  and  _357
REMARK  130  A    between atoms: _357  and  _358
REMARK  131  A    between atoms: _357  and  _360
REMARK  132  A    between atoms: _360  and  _361
REMARK  133  A    between atoms: _366  and  _367
REMARK  134  A    between atoms: _369  and  _371
REMARK  135  A    between atoms: _371  and  _372
REMARK  136  A    between atoms: _371  and  _374
REMARK  137  A    between atoms: _374  and  _375
REMARK  138  A    between atoms: _375  and  _376
REMARK  139  A    between atoms: _379  and  _381
REMARK  140  A    between atoms: _381  and  _382
REMARK  141  A    between atoms: _381  and  _384
REMARK  142  A    between atoms: _384  and  _385
REMARK  143  A    between atoms: _385  and  _386
REMARK  144  A    between atoms: _386  and  _387
REMARK  145  A    between atoms: _396  and  _398
REMARK  146  A    between atoms: _398  and  _399
REMARK  147  A    between atoms: _401  and  _403
REMARK  148  A    between atoms: _403  and  _404
REMARK  149  A    between atoms: _403  and  _406
REMARK  150  A    between atoms: _406  and  _407
REMARK  151  A    between atoms: _410  and  _412
REMARK  152  A    between atoms: _412  and  _413
REMARK                            x       y       z     vdW  Elec       q    Type
REMARK                         _______ _______ _______ _____ _____    ______ ____
ROOT
ATOM      1  CA  PHE A   4      37.144  65.340  17.263  0.00  0.00    +0.153 C 
ENDROOT
BRANCH   1   2
ATOM      2  C   PHE A   4      36.820  64.928  18.684  0.00  0.00    +0.241 C 
ATOM      3  O   PHE A   4      37.006  65.700  19.637  0.00  0.00    -0.273 OA
ATOM      4  N   ARG A   5      36.378  63.698  18.880  0.00  0.00    -0.298 N 
ATOM      5  H   ARG A   5      36.174  63.105  18.051  0.00  0.00    +0.150 HD
BRANCH   4   6
ATOM      6  CA  ARG A   5      36.164  63.135  20.212  0.00  0.00    +0.137 C 
BRANCH   6   7
ATOM      7  C   ARG A   5      37.451  62.694  20.877  0.00  0.00    +0.227 C 
ATOM      8  O   ARG A   5      38.534  62.599  20.297  0.00  0.00    -0.286 OA
ENDBRANCH   6   7
BRANCH   6   9
ATOM      9  CB  ARG A   5      35.145  61.993  20.164  0.00  0.00    +0.031 C 
BRANCH   9  10
ATOM     10  CG  ARG A   5      33.727  62.452  19.917  0.00  0.00    +0.045 C 
BRANCH  10  11
ATOM     11  CD  ARG A   5      33.214  63.422  20.942  0.00  0.00    +0.174 C 
BRANCH  11  12
ATOM     12  NE  ARG A   5      31.783  63.697  20.900  0.00  0.00    -0.265 N 
ATOM     13  CZ  ARG A   5      30.823  63.021  21.554  0.00  0.00    +0.342 C 
ATOM     14  NH2 ARG A   5      31.184  61.977  22.335  0.00  0.00    -0.292 N 
ATOM     15 HH21 ARG A   5      30.459  61.439  22.851  0.00  0.00    +0.255 HD
ATOM     16 HH22 ARG A   5      32.186  61.713  22.419  0.00  0.00    +0.255 HD
ATOM     17  NH1 ARG A   5      29.561  63.371  21.476  0.00  0.00    -0.292 N 
ATOM     18 HH11 ARG A   5      28.838  62.830  21.993  0.00  0.00    +0.255 HD
ATOM     19 HH12 ARG A   5      29.283  64.189  20.898  0.00  0.00    +0.255 HD
ATOM     20  HE  ARG A   5      31.475  64.494  20.306  0.00  0.00    +0.259 HD
ENDBRANCH  11  12
ENDBRANCH  10  11
ENDBRANCH   9  10
ENDBRANCH   6   9
ENDBRANCH   4   6
ENDBRANCH   1   2
BRANCH   1  23
ATOM     21  C   ASP A   3      34.863  64.829  16.472  0.00  0.00    +0.241 C 
ATOM     22  O   ASP A   3      34.332  65.348  17.466  0.00  0.00    -0.273 OA
ATOM     23  N   PHE A   4      36.179  64.751  16.339  0.00  0.00    -0.297 N 
ATOM     24  H   PHE A   4      36.551  64.233  15.518  0.00  0.00    +0.150 HD
BRANCH  21  25
ATOM     25  CA  ASP A   3      34.044  64.291  15.315  0.00  0.00    +0.160 C 
BRANCH  25  28
ATOM     26  C   ASP A   2      33.380  62.190  16.382  0.00  0.00    +0.241 C 
ATOM     27  O   ASP A   2      34.578  61.886  16.595  0.00  0.00    -0.273 OA
ATOM     28  N   ASP A   3      33.056  63.343  15.803  0.00  0.00    -0.297 N 
ATOM     29  H   ASP A   3      32.049  63.577  15.694  0.00  0.00    +0.150 HD
BRANCH  26  30
ATOM     30  CA  ASP A   2      32.241  61.257  16.728  0.00  0.00    +0.160 C 
BRANCH  30  33
ATOM     31  C   GLY A   1      32.152  59.050  17.805  0.00  0.00    +0.240 C 
ATOM     32  O   GLY A   1      31.008  58.806  17.494  0.00  0.00    -0.274 OA
ATOM     33  N   ASP A   2      32.823  60.138  17.469  0.00  0.00    -0.297 N 
ATOM     34  H   ASP A   2      33.823  60.202  17.748  0.00  0.00    +0.150 HD
BRANCH  31  35
ATOM     35  CA  GLY A   1      32.965  58.076  18.661  0.00  0.00    +0.169 C 
BRANCH  35  36
ATOM     36  N   GLY A   1      32.203  56.873  18.958  0.00  0.00    -0.236 NA
ATOM     37  H   GLY A   1      31.212  56.790  18.655  0.00  0.00    +0.142 HD
ENDBRANCH  35  36
ENDBRANCH  31  35
ENDBRANCH  30  33
BRANCH  30  38
ATOM     38  CB  ASP A   2      31.112  61.905  17.504  0.00  0.00    +0.143 C 
BRANCH  38  39
ATOM     39  CG  ASP A   2      30.057  62.674  16.789  0.00  0.00    +0.367 C 
ATOM     40  OD2 ASP A   2      29.005  62.958  17.437  0.00  0.00    -0.246 OA
ATOM     41  OD1 ASP A   2      30.274  62.991  15.585  0.00  0.00    -0.246 OA
ENDBRANCH  38  39
ENDBRANCH  30  38
ENDBRANCH  26  30
ENDBRANCH  25  28
BRANCH  25  42
ATOM     42  CB  ASP A   3      33.324  65.449  14.601  0.00  0.00    +0.143 C 
BRANCH  42  43
ATOM     43  CG  ASP A   3      32.657  65.080  13.320  0.00  0.00    +0.367 C 
ATOM     44  OD2 ASP A   3      32.568  63.878  12.991  0.00  0.00    -0.246 OA
ATOM     45  OD1 ASP A   3      32.244  66.056  12.599  0.00  0.00    -0.246 OA
ENDBRANCH  42  43
ENDBRANCH  25  42
ENDBRANCH  21  25
ENDBRANCH   1  23
BRANCH   1  46
ATOM     46  CB  PHE A   4      37.246  66.855  17.061  0.00  0.00    +0.055 C 
BRANCH  46  47
ATOM     47  CG  PHE A   4      37.823  67.237  15.719  0.00  0.00    -0.020 A 
ATOM     48  CD2 PHE A   4      39.201  67.205  15.510  0.00  0.00    -0.004 A 
ATOM     49  CE2 PHE A   4      39.728  67.556  14.263  0.00  0.00    -0.000 A 
ATOM     50  CZ  PHE A   4      38.883  67.945  13.270  0.00  0.00    -0.000 A 
ATOM     51  CE1 PHE A   4      37.514  67.996  13.440  0.00  0.00    -0.000 A 
ATOM     52  CD1 PHE A   4      36.992  67.631  14.675  0.00  0.00    -0.004 A 
ENDBRANCH  46  47
ENDBRANCH   1  46
TORSDOF 20
REMARK  Name = ../refined-set-2016/3ddf/3ddf_pocket.pdb
REMARK  152 active torsions:
REMARK  status: ('A' for Active; 'I' for Inactive)
REMARK    1  A    between atoms: _1  and  _3
REMARK    2  A    between atoms: _14  and  _17
REMARK    3  A    between atoms: _17  and  _18
REMARK    4  A    between atoms: _25  and  _26
REMARK    5  A    between atoms: _33  and  _34
REMARK    6  A    between atoms: _39  and  _41
REMARK    7  A    between atoms: _41  and  _42
REMARK    8  A    between atoms: _44  and  _46
REMARK    9  A    between atoms: _46  and  _47
REMARK   10  A    between atoms: _46  and  _49
REMARK   11  A    between atoms: _49  and  _50
REMARK   12  A    between atoms: _60  and  _62
REMARK   13  A    between atoms: _62  and  _63
REMARK   14  A    between atoms: _62  and  _65
REMARK   15  A    between atoms: _65  and  _66
REMARK   16  A    between atoms: _69  and  _71
REMARK   17  A    between atoms: _71  and  _72
REMARK   18  A    between atoms: _71  and  _74
REMARK   19  A    between atoms: _74  and  _75
REMARK   20  A    between atoms: _80  and  _81
REMARK   21  A    between atoms: _83  and  _85
REMARK   22  A    between atoms: _85  and  _86
REMARK   23  A    between atoms: _85  and  _88
REMARK   24  A    between atoms: _88  and  _89
REMARK   25  A    between atoms: _89  and  _90
REMARK   26  A    between atoms: _93  and  _95
REMARK   27  A    between atoms: _95  and  _96
REMARK   28  A    between atoms: _95  and  _98
REMARK   29  A    between atoms: _98  and  _99
REMARK   30  A    between atoms: _99  and  _100
REMARK   31  A    between atoms: _102  and  _104
REMARK   32  A    between atoms: _104  and  _105
REMARK   33  A    between atoms: _104  and  _107
REMARK   34  A    between atoms: _107  and  _108
REMARK   35  A    between atoms: _111  and  _113
REMARK   36  A    between atoms: _113  and  _114
REMARK   37  A    between atoms: _113  and  _116
REMARK   38  A    between atoms: _116  and  _117
REMARK   39  A    between atoms: _117  and  _118
REMARK   40  A    between atoms: _118  and  ZN_415
REMARK   41  A    between atoms: _121  and  _122
REMARK   42  A    between atoms: _127  and  _129
REMARK   43  A    between atoms: _129  and  _130
REMARK   44  A    between atoms: _129  and  _132
REMARK   45  A    between atoms: _132  and  _133
REMARK   46  A    between atoms: _139  and  _141
REMARK   47  A    between atoms: _141  and  _142
REMARK   48  A    between atoms: _141  and  _144
REMARK   49  A    between atoms: _144  and  _145
REMARK   50  A    between atoms: _145  and  _146
REMARK   51  A    between atoms: _146  and  _147
REMARK   52  A    between atoms: _156  and  _158
REMARK   53  A    between atoms: _158  and  _159
REMARK   54  A    between atoms: _158  and  _161
REMARK   55  A    between atoms: _161  and  _162
REMARK   56  A    between atoms: _167  and  _168
REMARK   57  A    between atoms: _170  and  _172
REMARK   58  A    between atoms: _172  and  _173
REMARK   59  A    between atoms: _172  and  _175
REMARK   60  A    between atoms: _175  and  _176
REMARK   61  A    between atoms: _178  and  _180
REMARK   62  A    between atoms: _180  and  _181
REMARK   63  A    between atoms: _180  and  _183
REMARK   64  A    between atoms: _183  and  _184
REMARK   65  A    between atoms: _189  and  _190
REMARK   66  A    between atoms: _192  and  _194
REMARK   67  A    between atoms: _194  and  _195
REMARK   68  A    between atoms: _194  and  _197
REMARK   69  A    between atoms: _197  and  _198
REMARK   70  A    between atoms: _201  and  _203
REMARK   71  A    between atoms: _203  and  _204
REMARK   72  A    between atoms: _203  and  _206
REMARK   73  A    between atoms: _206  and  _207
REMARK   74  A    between atoms: _210  and  _212
REMARK   75  A    between atoms: _212  and  _213
REMARK   76  A    between atoms: _212  and  _215
REMARK   77  A    between atoms: _215  and  _216
REMARK   78  A    between atoms: _216  and  _217
REMARK   79  A    between atoms: _217  and  _218
REMARK   80  A    between atoms: _227  and  _229
REMARK   81  A    between atoms: _229  and  _230
REMARK   82  A    between atoms: _232  and  _234
REMARK   83  A    between atoms: _234  and  _235
REMARK   84  A    between atoms: _234  and  _237
REMARK   85  A    between atoms: _237  and  _238
REMARK   86  A    between atoms: _241  and  _243
REMARK   87  A    between atoms: _243  and  _244
REMARK   88  A    between atoms: _243  and  _246
REMARK   89  A    between atoms: _246  and  _247
REMARK   90  A    between atoms: _250  and  _252
REMARK   91  A    between atoms: _252  and  _253
REMARK   92  A    between atoms: _252  and  _255
REMARK   93  A    between atoms: _255  and  _256
REMARK   94  A    between atoms: _262  and  _264
REMARK   95  A    between atoms: _264  and  _265
REMARK   96  A    between atoms: _264  and  _267
REMARK   97  A    between atoms: _267  and  _268
REMARK   98  A    between atoms: _268  and  _269
REMARK   99  A    between atoms: _269  and  _270
REMARK  100  A    between atoms: _279  and  _281
REMARK  101  A    between atoms: _281  and  _282
REMARK  102  A    between atoms: _281  and  _284
REMARK  103  A    between atoms: _284  and  _285
REMARK  104  A    between atoms: _295  and  _297
REMARK  105  A    between atoms: _297  and  _298
REMARK  106  A    between atoms: _297  and  _300
REMARK  107  A    between atoms: _300  and  _301
REMARK  108  A    between atoms: _306  and  _308
REMARK  109  A    between atoms: _308  and  _309
REMARK  110  A    between atoms: _308  and  _311
REMARK  111  A    between atoms: _311  and  _312
REMARK  112  A    between atoms: _316  and  ZN_415
REMARK  113  A    between atoms: _317  and  _319
REMARK  114  A    between atoms: _319  and  _320
REMARK  115  A    between atoms: _319  and  _322
REMARK  116  A    between atoms: _322  and  _323
REMARK  117  A    between atoms: _326  and  _328
REMARK  118  A    between atoms: _328  and  _329
REMARK  119  A    between atoms: _331  and  _333
REMARK  120  A    between atoms: _333  and  _334
REMARK  121  A    between atoms: _333  and  _336
REMARK  122  A    between atoms: _336  and  _337
REMARK  123  A    between atoms: _340  and  _342
REMARK  124  A    between atoms: _342  and  _343
REMARK  125  A    between atoms: _342  and  _345
REMARK  126  A    between atoms: _345  and  _346
REMARK  127  A    between atoms: _349  and  _351
REMARK  128  A    between atoms: _351  and  _352
REMARK  129  A    between atoms: _355  and  _357
REMARK  130  A    between atoms: _357  and  _358
REMARK  131  A    between atoms: _357  and  _360
REMARK  132  A    between atoms: _360  and  _361
REMARK  133  A    between atoms: _366  and  _367
REMARK  134  A    between atoms: _369  and  _371
REMARK  135  A    between atoms: _371  and  _372
REMARK  136  A    between atoms: _371  and  _374
REMARK  137  A    between atoms: _374  and  _375
REMARK  138  A    between atoms: _375  and  _376
REMARK  139  A    between atoms: _379  and  _381
REMARK  140  A    between atoms: _381  and  _382
REMARK  141  A    between atoms: _381  and  _384
REMARK  142  A    between atoms: _384  and  _385
REMARK  143  A    between atoms: _385  and  _386
REMARK  144  A    between atoms: _386  and  _387
REMARK  145  A    between atoms: _396  and  _398
REMARK  146  A    between atoms: _398  and  _399
REMARK  147  A    between atoms: _401  and  _403
REMARK  148  A    between atoms: _403  and  _404
REMARK  149  A    between atoms: _403  and  _406
REMARK  150  A    between atoms: _406  and  _407
REMARK  151  A    between atoms: _410  and  _412
REMARK  152  A    between atoms: _412  and  _413
REMARK                            x       y       z     vdW  Elec       q    Type
REMARK                         _______ _______ _______ _____ _____    ______ ____
ROOT
ATOM      1  CG  TRP A   1      24.661  64.534   0.338  0.00  0.00    -0.002 A 
ATOM      2  CD2 TRP A   1      25.409  64.794   1.544  0.00  0.00    +0.013 A 
ATOM      3  CE2 TRP A   1      24.540  64.720   2.631  0.00  0.00    +0.056 A 
ATOM      4  CZ2 TRP A   1      24.956  64.910   3.945  0.00  0.00    +0.017 A 
ATOM      5  CH2 TRP A   1      26.295  65.180   4.151  0.00  0.00    +0.001 A 
ATOM      6  CZ3 TRP A   1      27.208  65.258   3.069  0.00  0.00    +0.000 A 
ATOM      7  NE1 TRP A   1      23.282  64.432   2.115  0.00  0.00    -0.352 N 
ATOM      8  HE1 TRP A   1      22.413  64.309   2.673  0.00  0.00    +0.166 HD
ATOM      9  CE3 TRP A   1      26.792  65.070   1.779  0.00  0.00    +0.001 A 
ATOM     10  CD1 TRP A   1      23.372  64.336   0.753  0.00  0.00    +0.068 A 
ENDROOT
BRANCH   1  11
ATOM     11  CB  TRP A   1      25.224  64.498  -1.047  0.00  0.00    +0.053 C 
BRANCH  11  12
ATOM     12  CA  TRP A   1      24.379  65.123  -2.137  0.00  0.00    +0.137 C 
BRANCH  12  13
ATOM     13  N   TRP A   1      23.121  64.423  -2.270  0.00  0.00    -0.239 NA
ATOM     14  H   TRP A   1      23.106  63.390  -2.153  0.00  0.00    +0.142 HD
ENDBRANCH  12  13
BRANCH  12  15
ATOM     15  C   TRP A   1      25.130  65.165  -3.485  0.00  0.00    +0.224 C 
ATOM     16  O   TRP A   1      26.252  64.722  -3.597  0.00  0.00    -0.287 OA
ENDBRANCH  12  15
ENDBRANCH  11  12
ENDBRANCH   1  11
TORSDOF 4
REMARK  Name = ../refined-set-2016/3ddf/3ddf_pocket.pdb
REMARK  152 active torsions:
REMARK  status: ('A' for Active; 'I' for Inactive)
REMARK    1  A    between atoms: _1  and  _3
REMARK    2  A    between atoms: _14  and  _17
REMARK    3  A    between atoms: _17  and  _18
REMARK    4  A    between atoms: _25  and  _26
REMARK    5  A    between atoms: _33  and  _34
REMARK    6  A    between atoms: _39  and  _41
REMARK    7  A    between atoms: _41  and  _42
REMARK    8  A    between atoms: _44  and  _46
REMARK    9  A    between atoms: _46  and  _47
REMARK   10  A    between atoms: _46  and  _49
REMARK   11  A    between atoms: _49  and  _50
REMARK   12  A    between atoms: _60  and  _62
REMARK   13  A    between atoms: _62  and  _63
REMARK   14  A    between atoms: _62  and  _65
REMARK   15  A    between atoms: _65  and  _66
REMARK   16  A    between atoms: _69  and  _71
REMARK   17  A    between atoms: _71  and  _72
REMARK   18  A    between atoms: _71  and  _74
REMARK   19  A    between atoms: _74  and  _75
REMARK   20  A    between atoms: _80  and  _81
REMARK   21  A    between atoms: _83  and  _85
REMARK   22  A    between atoms: _85  and  _86
REMARK   23  A    between atoms: _85  and  _88
REMARK   24  A    between atoms: _88  and  _89
REMARK   25  A    between atoms: _89  and  _90
REMARK   26  A    between atoms: _93  and  _95
REMARK   27  A    between atoms: _95  and  _96
REMARK   28  A    between atoms: _95  and  _98
REMARK   29  A    between atoms: _98  and  _99
REMARK   30  A    between atoms: _99  and  _100
REMARK   31  A    between atoms: _102  and  _104
REMARK   32  A    between atoms: _104  and  _105
REMARK   33  A    between atoms: _104  and  _107
REMARK   34  A    between atoms: _107  and  _108
REMARK   35  A    between atoms: _111  and  _113
REMARK   36  A    between atoms: _113  and  _114
REMARK   37  A    between atoms: _113  and  _116
REMARK   38  A    between atoms: _116  and  _117
REMARK   39  A    between atoms: _117  and  _118
REMARK   40  A    between atoms: _118  and  ZN_415
REMARK   41  A    between atoms: _121  and  _122
REMARK   42  A    between atoms: _127  and  _129
REMARK   43  A    between atoms: _129  and  _130
REMARK   44  A    between atoms: _129  and  _132
REMARK   45  A    between atoms: _132  and  _133
REMARK   46  A    between atoms: _139  and  _141
REMARK   47  A    between atoms: _141  and  _142
REMARK   48  A    between atoms: _141  and  _144
REMARK   49  A    between atoms: _144  and  _145
REMARK   50  A    between atoms: _145  and  _146
REMARK   51  A    between atoms: _146  and  _147
REMARK   52  A    between atoms: _156  and  _158
REMARK   53  A    between atoms: _158  and  _159
REMARK   54  A    between atoms: _158  and  _161
REMARK   55  A    between atoms: _161  and  _162
REMARK   56  A    between atoms: _167  and  _168
REMARK   57  A    between atoms: _170  and  _172
REMARK   58  A    between atoms: _172  and  _173
REMARK   59  A    between atoms: _172  and  _175
REMARK   60  A    between atoms: _175  and  _176
REMARK   61  A    between atoms: _178  and  _180
REMARK   62  A    between atoms: _180  and  _181
REMARK   63  A    between atoms: _180  and  _183
REMARK   64  A    between atoms: _183  and  _184
REMARK   65  A    between atoms: _189  and  _190
REMARK   66  A    between atoms: _192  and  _194
REMARK   67  A    between atoms: _194  and  _195
REMARK   68  A    between atoms: _194  and  _197
REMARK   69  A    between atoms: _197  and  _198
REMARK   70  A    between atoms: _201  and  _203
REMARK   71  A    between atoms: _203  and  _204
REMARK   72  A    between atoms: _203  and  _206
REMARK   73  A    between atoms: _206  and  _207
REMARK   74  A    between atoms: _210  and  _212
REMARK   75  A    between atoms: _212  and  _213
REMARK   76  A    between atoms: _212  and  _215
REMARK   77  A    between atoms: _215  and  _216
REMARK   78  A    between atoms: _216  and  _217
REMARK   79  A    between atoms: _217  and  _218
REMARK   80  A    between atoms: _227  and  _229
REMARK   81  A    between atoms: _229  and  _230
REMARK   82  A    between atoms: _232  and  _234
REMARK   83  A    between atoms: _234  and  _235
REMARK   84  A    between atoms: _234  and  _237
REMARK   85  A    between atoms: _237  and  _238
REMARK   86  A    between atoms: _241  and  _243
REMARK   87  A    between atoms: _243  and  _244
REMARK   88  A    between atoms: _243  and  _246
REMARK   89  A    between atoms: _246  and  _247
REMARK   90  A    between atoms: _250  and  _252
REMARK   91  A    between atoms: _252  and  _253
REMARK   92  A    between atoms: _252  and  _255
REMARK   93  A    between atoms: _255  and  _256
REMARK   94  A    between atoms: _262  and  _264
REMARK   95  A    between atoms: _264  and  _265
REMARK   96  A    between atoms: _264  and  _267
REMARK   97  A    between atoms: _267  and  _268
REMARK   98  A    between atoms: _268  and  _269
REMARK   99  A    between atoms: _269  and  _270
REMARK  100  A    between atoms: _279  and  _281
REMARK  101  A    between atoms: _281  and  _282
REMARK  102  A    between atoms: _281  and  _284
REMARK  103  A    between atoms: _284  and  _285
REMARK  104  A    between atoms: _295  and  _297
REMARK  105  A    between atoms: _297  and  _298
REMARK  106  A    between atoms: _297  and  _300
REMARK  107  A    between atoms: _300  and  _301
REMARK  108  A    between atoms: _306  and  _308
REMARK  109  A    between atoms: _308  and  _309
REMARK  110  A    between atoms: _308  and  _311
REMARK  111  A    between atoms: _311  and  _312
REMARK  112  A    between atoms: _316  and  ZN_415
REMARK  113  A    between atoms: _317  and  _319
REMARK  114  A    between atoms: _319  and  _320
REMARK  115  A    between atoms: _319  and  _322
REMARK  116  A    between atoms: _322  and  _323
REMARK  117  A    between atoms: _326  and  _328
REMARK  118  A    between atoms: _328  and  _329
REMARK  119  A    between atoms: _331  and  _333
REMARK  120  A    between atoms: _333  and  _334
REMARK  121  A    between atoms: _333  and  _336
REMARK  122  A    between atoms: _336  and  _337
REMARK  123  A    between atoms: _340  and  _342
REMARK  124  A    between atoms: _342  and  _343
REMARK  125  A    between atoms: _342  and  _345
REMARK  126  A    between atoms: _345  and  _346
REMARK  127  A    between atoms: _349  and  _351
REMARK  128  A    between atoms: _351  and  _352
REMARK  129  A    between atoms: _355  and  _357
REMARK  130  A    between atoms: _357  and  _358
REMARK  131  A    between atoms: _357  and  _360
REMARK  132  A    between atoms: _360  and  _361
REMARK  133  A    between atoms: _366  and  _367
REMARK  134  A    between atoms: _369  and  _371
REMARK  135  A    between atoms: _371  and  _372
REMARK  136  A    between atoms: _371  and  _374
REMARK  137  A    between atoms: _374  and  _375
REMARK  138  A    between atoms: _375  and  _376
REMARK  139  A    between atoms: _379  and  _381
REMARK  140  A    between atoms: _381  and  _382
REMARK  141  A    between atoms: _381  and  _384
REMARK  142  A    between atoms: _384  and  _385
REMARK  143  A    between atoms: _385  and  _386
REMARK  144  A    between atoms: _386  and  _387
REMARK  145  A    between atoms: _396  and  _398
REMARK  146  A    between atoms: _398  and  _399
REMARK  147  A    between atoms: _401  and  _403
REMARK  148  A    between atoms: _403  and  _404
REMARK  149  A    between atoms: _403  and  _406
REMARK  150  A    between atoms: _406  and  _407
REMARK  151  A    between atoms: _410  and  _412
REMARK  152  A    between atoms: _412  and  _413
REMARK                            x       y       z     vdW  Elec       q    Type
REMARK                         _______ _______ _______ _____ _____    ______ ____
ROOT
ATOM      1  CA  THR A   1      34.631  68.224  -2.496  0.00  0.00    +0.160 C 
ENDROOT
BRANCH   1   2
ATOM      2  N   THR A   1      36.086  68.113  -2.502  0.00  0.00    -0.237 NA
ATOM      3  H   THR A   1      36.558  67.696  -1.674  0.00  0.00    +0.142 HD
ENDBRANCH   1   2
BRANCH   1   4
ATOM      4  CB  THR A   1      34.065  67.552  -1.247  0.00  0.00    +0.134 C 
ATOM      5  CG2 THR A   1      34.408  66.081  -1.139  0.00  0.00    +0.034 C 
BRANCH   4   6
ATOM      6  OG1 THR A   1      34.596  68.295  -0.138  0.00  0.00    -0.383 OA
ATOM      7  HG1 THR A   1      34.263  67.905   0.709  0.00  0.00    +0.210 HD
ENDBRANCH   4   6
ENDBRANCH   1   4
BRANCH   1   8
ATOM      8  C   THR A   1      34.102  69.640  -2.519  0.00  0.00    +0.227 C 
ATOM      9  O   THR A   1      32.933  69.846  -2.858  0.00  0.00    -0.287 OA
ENDBRANCH   1   8
TORSDOF 4
REMARK  Name = ../refined-set-2016/3ddf/3ddf_pocket.pdb
REMARK  152 active torsions:
REMARK  status: ('A' for Active; 'I' for Inactive)
REMARK    1  A    between atoms: _1  and  _3
REMARK    2  A    between atoms: _14  and  _17
REMARK    3  A    between atoms: _17  and  _18
REMARK    4  A    between atoms: _25  and  _26
REMARK    5  A    between atoms: _33  and  _34
REMARK    6  A    between atoms: _39  and  _41
REMARK    7  A    between atoms: _41  and  _42
REMARK    8  A    between atoms: _44  and  _46
REMARK    9  A    between atoms: _46  and  _47
REMARK   10  A    between atoms: _46  and  _49
REMARK   11  A    between atoms: _49  and  _50
REMARK   12  A    between atoms: _60  and  _62
REMARK   13  A    between atoms: _62  and  _63
REMARK   14  A    between atoms: _62  and  _65
REMARK   15  A    between atoms: _65  and  _66
REMARK   16  A    between atoms: _69  and  _71
REMARK   17  A    between atoms: _71  and  _72
REMARK   18  A    between atoms: _71  and  _74
REMARK   19  A    between atoms: _74  and  _75
REMARK   20  A    between atoms: _80  and  _81
REMARK   21  A    between atoms: _83  and  _85
REMARK   22  A    between atoms: _85  and  _86
REMARK   23  A    between atoms: _85  and  _88
REMARK   24  A    between atoms: _88  and  _89
REMARK   25  A    between atoms: _89  and  _90
REMARK   26  A    between atoms: _93  and  _95
REMARK   27  A    between atoms: _95  and  _96
REMARK   28  A    between atoms: _95  and  _98
REMARK   29  A    between atoms: _98  and  _99
REMARK   30  A    between atoms: _99  and  _100
REMARK   31  A    between atoms: _102  and  _104
REMARK   32  A    between atoms: _104  and  _105
REMARK   33  A    between atoms: _104  and  _107
REMARK   34  A    between atoms: _107  and  _108
REMARK   35  A    between atoms: _111  and  _113
REMARK   36  A    between atoms: _113  and  _114
REMARK   37  A    between atoms: _113  and  _116
REMARK   38  A    between atoms: _116  and  _117
REMARK   39  A    between atoms: _117  and  _118
REMARK   40  A    between atoms: _118  and  ZN_415
REMARK   41  A    between atoms: _121  and  _122
REMARK   42  A    between atoms: _127  and  _129
REMARK   43  A    between atoms: _129  and  _130
REMARK   44  A    between atoms: _129  and  _132
REMARK   45  A    between atoms: _132  and  _133
REMARK   46  A    between atoms: _139  and  _141
REMARK   47  A    between atoms: _141  and  _142
REMARK   48  A    between atoms: _141  and  _144
REMARK   49  A    between atoms: _144  and  _145
REMARK   50  A    between atoms: _145  and  _146
REMARK   51  A    between atoms: _146  and  _147
REMARK   52  A    between atoms: _156  and  _158
REMARK   53  A    between atoms: _158  and  _159
REMARK   54  A    between atoms: _158  and  _161
REMARK   55  A    between atoms: _161  and  _162
REMARK   56  A    between atoms: _167  and  _168
REMARK   57  A    between atoms: _170  and  _172
REMARK   58  A    between atoms: _172  and  _173
REMARK   59  A    between atoms: _172  and  _175
REMARK   60  A    between atoms: _175  and  _176
REMARK   61  A    between atoms: _178  and  _180
REMARK   62  A    between atoms: _180  and  _181
REMARK   63  A    between atoms: _180  and  _183
REMARK   64  A    between atoms: _183  and  _184
REMARK   65  A    between atoms: _189  and  _190
REMARK   66  A    between atoms: _192  and  _194
REMARK   67  A    between atoms: _194  and  _195
REMARK   68  A    between atoms: _194  and  _197
REMARK   69  A    between atoms: _197  and  _198
REMARK   70  A    between atoms: _201  and  _203
REMARK   71  A    between atoms: _203  and  _204
REMARK   72  A    between atoms: _203  and  _206
REMARK   73  A    between atoms: _206  and  _207
REMARK   74  A    between atoms: _210  and  _212
REMARK   75  A    between atoms: _212  and  _213
REMARK   76  A    between atoms: _212  and  _215
REMARK   77  A    between atoms: _215  and  _216
REMARK   78  A    between atoms: _216  and  _217
REMARK   79  A    between atoms: _217  and  _218
REMARK   80  A    between atoms: _227  and  _229
REMARK   81  A    between atoms: _229  and  _230
REMARK   82  A    between atoms: _232  and  _234
REMARK   83  A    between atoms: _234  and  _235
REMARK   84  A    between atoms: _234  and  _237
REMARK   85  A    between atoms: _237  and  _238
REMARK   86  A    between atoms: _241  and  _243
REMARK   87  A    between atoms: _243  and  _244
REMARK   88  A    between atoms: _243  and  _246
REMARK   89  A    between atoms: _246  and  _247
REMARK   90  A    between atoms: _250  and  _252
REMARK   91  A    between atoms: _252  and  _253
REMARK   92  A    between atoms: _252  and  _255
REMARK   93  A    between atoms: _255  and  _256
REMARK   94  A    between atoms: _262  and  _264
REMARK   95  A    between atoms: _264  and  _265
REMARK   96  A    between atoms: _264  and  _267
REMARK   97  A    between atoms: _267  and  _268
REMARK   98  A    between atoms: _268  and  _269
REMARK   99  A    between atoms: _269  and  _270
REMARK  100  A    between atoms: _279  and  _281
REMARK  101  A    between atoms: _281  and  _282
REMARK  102  A    between atoms: _281  and  _284
REMARK  103  A    between atoms: _284  and  _285
REMARK  104  A    between atoms: _295  and  _297
REMARK  105  A    between atoms: _297  and  _298
REMARK  106  A    between atoms: _297  and  _300
REMARK  107  A    between atoms: _300  and  _301
REMARK  108  A    between atoms: _306  and  _308
REMARK  109  A    between atoms: _308  and  _309
REMARK  110  A    between atoms: _308  and  _311
REMARK  111  A    between atoms: _311  and  _312
REMARK  112  A    between atoms: _316  and  ZN_415
REMARK  113  A    between atoms: _317  and  _319
REMARK  114  A    between atoms: _319  and  _320
REMARK  115  A    between atoms: _319  and  _322
REMARK  116  A    between atoms: _322  and  _323
REMARK  117  A    between atoms: _326  and  _328
REMARK  118  A    between atoms: _328  and  _329
REMARK  119  A    between atoms: _331  and  _333
REMARK  120  A    between atoms: _333  and  _334
REMARK  121  A    between atoms: _333  and  _336
REMARK  122  A    between atoms: _336  and  _337
REMARK  123  A    between atoms: _340  and  _342
REMARK  124  A    between atoms: _342  and  _343
REMARK  125  A    between atoms: _342  and  _345
REMARK  126  A    between atoms: _345  and  _346
REMARK  127  A    between atoms: _349  and  _351
REMARK  128  A    between atoms: _351  and  _352
REMARK  129  A    between atoms: _355  and  _357
REMARK  130  A    between atoms: _357  and  _358
REMARK  131  A    between atoms: _357  and  _360
REMARK  132  A    between atoms: _360  and  _361
REMARK  133  A    between atoms: _366  and  _367
REMARK  134  A    between atoms: _369  and  _371
REMARK  135  A    between atoms: _371  and  _372
REMARK  136  A    between atoms: _371  and  _374
REMARK  137  A    between atoms: _374  and  _375
REMARK  138  A    between atoms: _375  and  _376
REMARK  139  A    between atoms: _379  and  _381
REMARK  140  A    between atoms: _381  and  _382
REMARK  141  A    between atoms: _381  and  _384
REMARK  142  A    between atoms: _384  and  _385
REMARK  143  A    between atoms: _385  and  _386
REMARK  144  A    between atoms: _386  and  _387
REMARK  145  A    between atoms: _396  and  _398
REMARK  146  A    between atoms: _398  and  _399
REMARK  147  A    between atoms: _401  and  _403
REMARK  148  A    between atoms: _403  and  _404
REMARK  149  A    between atoms: _403  and  _406
REMARK  150  A    between atoms: _406  and  _407
REMARK  151  A    between atoms: _410  and  _412
REMARK  152  A    between atoms: _412  and  _413
REMARK                            x       y       z     vdW  Elec       q    Type
REMARK                         _______ _______ _______ _____ _____    ______ ____
ROOT
ATOM      1  C   THR A   1      33.331  72.246   2.494  0.00  0.00    +0.241 C 
ATOM      2  O   THR A   1      32.822  72.019   3.597  0.00  0.00    -0.274 OA
ATOM      3  N   ALA A   2      34.419  73.018   2.352  0.00  0.00    -0.298 N 
ATOM      4  H   ALA A   2      34.819  73.168   1.404  0.00  0.00    +0.150 HD
ENDROOT
BRANCH   3   5
ATOM      5  CA  ALA A   2      35.050  73.651   3.504  0.00  0.00    +0.137 C 
ATOM      6  CB  ALA A   2      36.588  73.427   3.441  0.00  0.00    +0.030 C 
BRANCH   5   7
ATOM      7  C   ALA A   2      34.727  75.122   3.570  0.00  0.00    +0.227 C 
ATOM      8  O   ALA A   2      34.275  75.755   2.617  0.00  0.00    -0.286 OA
ENDBRANCH   5   7
ENDBRANCH   3   5
BRANCH   1   9
ATOM      9  CA  THR A   1      32.668  71.668   1.246  0.00  0.00    +0.172 C 
BRANCH   9  10
ATOM     10  N   THR A   1      33.563  71.564   0.110  0.00  0.00    -0.236 NA
ATOM     11  H   THR A   1      34.369  70.910   0.180  0.00  0.00    +0.142 HD
ENDBRANCH   9  10
BRANCH   9  12
ATOM     12  CB  THR A   1      31.950  70.352   1.538  0.00  0.00    +0.135 C 
ATOM     13  CG2 THR A   1      31.133  69.872   0.357  0.00  0.00    +0.034 C 
BRANCH  12  14
ATOM     14  OG1 THR A   1      32.916  69.327   1.843  0.00  0.00    -0.383 OA
ATOM     15  HG1 THR A   1      33.522  69.206   1.070  0.00  0.00    +0.210 HD
ENDBRANCH  12  14
ENDBRANCH   9  12
ENDBRANCH   1   9
TORSDOF 6
REMARK  Name = ../refined-set-2016/3ddf/3ddf_pocket.pdb
REMARK  152 active torsions:
REMARK  status: ('A' for Active; 'I' for Inactive)
REMARK    1  A    between atoms: _1  and  _3
REMARK    2  A    between atoms: _14  and  _17
REMARK    3  A    between atoms: _17  and  _18
REMARK    4  A    between atoms: _25  and  _26
REMARK    5  A    between atoms: _33  and  _34
REMARK    6  A    between atoms: _39  and  _41
REMARK    7  A    between atoms: _41  and  _42
REMARK    8  A    between atoms: _44  and  _46
REMARK    9  A    between atoms: _46  and  _47
REMARK   10  A    between atoms: _46  and  _49
REMARK   11  A    between atoms: _49  and  _50
REMARK   12  A    between atoms: _60  and  _62
REMARK   13  A    between atoms: _62  and  _63
REMARK   14  A    between atoms: _62  and  _65
REMARK   15  A    between atoms: _65  and  _66
REMARK   16  A    between atoms: _69  and  _71
REMARK   17  A    between atoms: _71  and  _72
REMARK   18  A    between atoms: _71  and  _74
REMARK   19  A    between atoms: _74  and  _75
REMARK   20  A    between atoms: _80  and  _81
REMARK   21  A    between atoms: _83  and  _85
REMARK   22  A    between atoms: _85  and  _86
REMARK   23  A    between atoms: _85  and  _88
REMARK   24  A    between atoms: _88  and  _89
REMARK   25  A    between atoms: _89  and  _90
REMARK   26  A    between atoms: _93  and  _95
REMARK   27  A    between atoms: _95  and  _96
REMARK   28  A    between atoms: _95  and  _98
REMARK   29  A    between atoms: _98  and  _99
REMARK   30  A    between atoms: _99  and  _100
REMARK   31  A    between atoms: _102  and  _104
REMARK   32  A    between atoms: _104  and  _105
REMARK   33  A    between atoms: _104  and  _107
REMARK   34  A    between atoms: _107  and  _108
REMARK   35  A    between atoms: _111  and  _113
REMARK   36  A    between atoms: _113  and  _114
REMARK   37  A    between atoms: _113  and  _116
REMARK   38  A    between atoms: _116  and  _117
REMARK   39  A    between atoms: _117  and  _118
REMARK   40  A    between atoms: _118  and  ZN_415
REMARK   41  A    between atoms: _121  and  _122
REMARK   42  A    between atoms: _127  and  _129
REMARK   43  A    between atoms: _129  and  _130
REMARK   44  A    between atoms: _129  and  _132
REMARK   45  A    between atoms: _132  and  _133
REMARK   46  A    between atoms: _139  and  _141
REMARK   47  A    between atoms: _141  and  _142
REMARK   48  A    between atoms: _141  and  _144
REMARK   49  A    between atoms: _144  and  _145
REMARK   50  A    between atoms: _145  and  _146
REMARK   51  A    between atoms: _146  and  _147
REMARK   52  A    between atoms: _156  and  _158
REMARK   53  A    between atoms: _158  and  _159
REMARK   54  A    between atoms: _158  and  _161
REMARK   55  A    between atoms: _161  and  _162
REMARK   56  A    between atoms: _167  and  _168
REMARK   57  A    between atoms: _170  and  _172
REMARK   58  A    between atoms: _172  and  _173
REMARK   59  A    between atoms: _172  and  _175
REMARK   60  A    between atoms: _175  and  _176
REMARK   61  A    between atoms: _178  and  _180
REMARK   62  A    between atoms: _180  and  _181
REMARK   63  A    between atoms: _180  and  _183
REMARK   64  A    between atoms: _183  and  _184
REMARK   65  A    between atoms: _189  and  _190
REMARK   66  A    between atoms: _192  and  _194
REMARK   67  A    between atoms: _194  and  _195
REMARK   68  A    between atoms: _194  and  _197
REMARK   69  A    between atoms: _197  and  _198
REMARK   70  A    between atoms: _201  and  _203
REMARK   71  A    between atoms: _203  and  _204
REMARK   72  A    between atoms: _203  and  _206
REMARK   73  A    between atoms: _206  and  _207
REMARK   74  A    between atoms: _210  and  _212
REMARK   75  A    between atoms: _212  and  _213
REMARK   76  A    between atoms: _212  and  _215
REMARK   77  A    between atoms: _215  and  _216
REMARK   78  A    between atoms: _216  and  _217
REMARK   79  A    between atoms: _217  and  _218
REMARK   80  A    between atoms: _227  and  _229
REMARK   81  A    between atoms: _229  and  _230
REMARK   82  A    between atoms: _232  and  _234
REMARK   83  A    between atoms: _234  and  _235
REMARK   84  A    between atoms: _234  and  _237
REMARK   85  A    between atoms: _237  and  _238
REMARK   86  A    between atoms: _241  and  _243
REMARK   87  A    between atoms: _243  and  _244
REMARK   88  A    between atoms: _243  and  _246
REMARK   89  A    between atoms: _246  and  _247
REMARK   90  A    between atoms: _250  and  _252
REMARK   91  A    between atoms: _252  and  _253
REMARK   92  A    between atoms: _252  and  _255
REMARK   93  A    between atoms: _255  and  _256
REMARK   94  A    between atoms: _262  and  _264
REMARK   95  A    between atoms: _264  and  _265
REMARK   96  A    between atoms: _264  and  _267
REMARK   97  A    between atoms: _267  and  _268
REMARK   98  A    between atoms: _268  and  _269
REMARK   99  A    between atoms: _269  and  _270
REMARK  100  A    between atoms: _279  and  _281
REMARK  101  A    between atoms: _281  and  _282
REMARK  102  A    between atoms: _281  and  _284
REMARK  103  A    between atoms: _284  and  _285
REMARK  104  A    between atoms: _295  and  _297
REMARK  105  A    between atoms: _297  and  _298
REMARK  106  A    between atoms: _297  and  _300
REMARK  107  A    between atoms: _300  and  _301
REMARK  108  A    between atoms: _306  and  _308
REMARK  109  A    between atoms: _308  and  _309
REMARK  110  A    between atoms: _308  and  _311
REMARK  111  A    between atoms: _311  and  _312
REMARK  112  A    between atoms: _316  and  ZN_415
REMARK  113  A    between atoms: _317  and  _319
REMARK  114  A    between atoms: _319  and  _320
REMARK  115  A    between atoms: _319  and  _322
REMARK  116  A    between atoms: _322  and  _323
REMARK  117  A    between atoms: _326  and  _328
REMARK  118  A    between atoms: _328  and  _329
REMARK  119  A    between atoms: _331  and  _333
REMARK  120  A    between atoms: _333  and  _334
REMARK  121  A    between atoms: _333  and  _336
REMARK  122  A    between atoms: _336  and  _337
REMARK  123  A    between atoms: _340  and  _342
REMARK  124  A    between atoms: _342  and  _343
REMARK  125  A    between atoms: _342  and  _345
REMARK  126  A    between atoms: _345  and  _346
REMARK  127  A    between atoms: _349  and  _351
REMARK  128  A    between atoms: _351  and  _352
REMARK  129  A    between atoms: _355  and  _357
REMARK  130  A    between atoms: _357  and  _358
REMARK  131  A    between atoms: _357  and  _360
REMARK  132  A    between atoms: _360  and  _361
REMARK  133  A    between atoms: _366  and  _367
REMARK  134  A    between atoms: _369  and  _371
REMARK  135  A    between atoms: _371  and  _372
REMARK  136  A    between atoms: _371  and  _374
REMARK  137  A    between atoms: _374  and  _375
REMARK  138  A    between atoms: _375  and  _376
REMARK  139  A    between atoms: _379  and  _381
REMARK  140  A    between atoms: _381  and  _382
REMARK  141  A    between atoms: _381  and  _384
REMARK  142  A    between atoms: _384  and  _385
REMARK  143  A    between atoms: _385  and  _386
REMARK  144  A    between atoms: _386  and  _387
REMARK  145  A    between atoms: _396  and  _398
REMARK  146  A    between atoms: _398  and  _399
REMARK  147  A    between atoms: _401  and  _403
REMARK  148  A    between atoms: _403  and  _404
REMARK  149  A    between atoms: _403  and  _406
REMARK  150  A    between atoms: _406  and  _407
REMARK  151  A    between atoms: _410  and  _412
REMARK  152  A    between atoms: _412  and  _413
REMARK                            x       y       z     vdW  Elec       q    Type
REMARK                         _______ _______ _______ _____ _____    ______ ____
ROOT
ATOM      1  CG  TYR A   1      27.471  69.237   2.029  0.00  0.00    -0.020 A 
ATOM      2  CD2 TYR A   1      27.439  70.375   2.794  0.00  0.00    -0.001 A 
ATOM      3  CE2 TYR A   1      28.383  70.595   3.795  0.00  0.00    +0.036 A 
ATOM      4  CZ  TYR A   1      29.352  69.625   4.041  0.00  0.00    +0.134 A 
ATOM      5  CE1 TYR A   1      29.369  68.474   3.281  0.00  0.00    +0.036 A 
ATOM      6  CD1 TYR A   1      28.445  68.293   2.288  0.00  0.00    -0.001 A 
ENDROOT
BRANCH   4   7
ATOM      7  OH  TYR A   1      30.234  69.832   5.069  0.00  0.00    -0.506 OA
ATOM      8  HH  TYR A   1      30.123  69.119   5.746  0.00  0.00    +0.292 HD
ENDBRANCH   4   7
BRANCH   1   9
ATOM      9  CB  TYR A   1      26.425  68.998   0.938  0.00  0.00    +0.051 C 
BRANCH   9  10
ATOM     10  CA  TYR A   1      26.653  69.622  -0.425  0.00  0.00    +0.137 C 
BRANCH  10  11
ATOM     11  N   TYR A   1      26.878  71.048  -0.305  0.00  0.00    -0.239 NA
ATOM     12  H   TYR A   1      26.388  71.563   0.454  0.00  0.00    +0.142 HD
ENDBRANCH  10  11
BRANCH  10  13
ATOM     13  C   TYR A   1      25.483  69.259  -1.334  0.00  0.00    +0.224 C 
ATOM     14  O   TYR A   1      25.587  68.400  -2.200  0.00  0.00    -0.287 OA
ENDBRANCH  10  13
ENDBRANCH   9  10
ENDBRANCH   1   9
TORSDOF 5
REMARK  Name = ../refined-set-2016/3ddf/3ddf_pocket.pdb
REMARK  152 active torsions:
REMARK  status: ('A' for Active; 'I' for Inactive)
REMARK    1  A    between atoms: _1  and  _3
REMARK    2  A    between atoms: _14  and  _17
REMARK    3  A    between atoms: _17  and  _18
REMARK    4  A    between atoms: _25  and  _26
REMARK    5  A    between atoms: _33  and  _34
REMARK    6  A    between atoms: _39  and  _41
REMARK    7  A    between atoms: _41  and  _42
REMARK    8  A    between atoms: _44  and  _46
REMARK    9  A    between atoms: _46  and  _47
REMARK   10  A    between atoms: _46  and  _49
REMARK   11  A    between atoms: _49  and  _50
REMARK   12  A    between atoms: _60  and  _62
REMARK   13  A    between atoms: _62  and  _63
REMARK   14  A    between atoms: _62  and  _65
REMARK   15  A    between atoms: _65  and  _66
REMARK   16  A    between atoms: _69  and  _71
REMARK   17  A    between atoms: _71  and  _72
REMARK   18  A    between atoms: _71  and  _74
REMARK   19  A    between atoms: _74  and  _75
REMARK   20  A    between atoms: _80  and  _81
REMARK   21  A    between atoms: _83  and  _85
REMARK   22  A    between atoms: _85  and  _86
REMARK   23  A    between atoms: _85  and  _88
REMARK   24  A    between atoms: _88  and  _89
REMARK   25  A    between atoms: _89  and  _90
REMARK   26  A    between atoms: _93  and  _95
REMARK   27  A    between atoms: _95  and  _96
REMARK   28  A    between atoms: _95  and  _98
REMARK   29  A    between atoms: _98  and  _99
REMARK   30  A    between atoms: _99  and  _100
REMARK   31  A    between atoms: _102  and  _104
REMARK   32  A    between atoms: _104  and  _105
REMARK   33  A    between atoms: _104  and  _107
REMARK   34  A    between atoms: _107  and  _108
REMARK   35  A    between atoms: _111  and  _113
REMARK   36  A    between atoms: _113  and  _114
REMARK   37  A    between atoms: _113  and  _116
REMARK   38  A    between atoms: _116  and  _117
REMARK   39  A    between atoms: _117  and  _118
REMARK   40  A    between atoms: _118  and  ZN_415
REMARK   41  A    between atoms: _121  and  _122
REMARK   42  A    between atoms: _127  and  _129
REMARK   43  A    between atoms: _129  and  _130
REMARK   44  A    between atoms: _129  and  _132
REMARK   45  A    between atoms: _132  and  _133
REMARK   46  A    between atoms: _139  and  _141
REMARK   47  A    between atoms: _141  and  _142
REMARK   48  A    between atoms: _141  and  _144
REMARK   49  A    between atoms: _144  and  _145
REMARK   50  A    between atoms: _145  and  _146
REMARK   51  A    between atoms: _146  and  _147
REMARK   52  A    between atoms: _156  and  _158
REMARK   53  A    between atoms: _158  and  _159
REMARK   54  A    between atoms: _158  and  _161
REMARK   55  A    between atoms: _161  and  _162
REMARK   56  A    between atoms: _167  and  _168
REMARK   57  A    between atoms: _170  and  _172
REMARK   58  A    between atoms: _172  and  _173
REMARK   59  A    between atoms: _172  and  _175
REMARK   60  A    between atoms: _175  and  _176
REMARK   61  A    between atoms: _178  and  _180
REMARK   62  A    between atoms: _180  and  _181
REMARK   63  A    between atoms: _180  and  _183
REMARK   64  A    between atoms: _183  and  _184
REMARK   65  A    between atoms: _189  and  _190
REMARK   66  A    between atoms: _192  and  _194
REMARK   67  A    between atoms: _194  and  _195
REMARK   68  A    between atoms: _194  and  _197
REMARK   69  A    between atoms: _197  and  _198
REMARK   70  A    between atoms: _201  and  _203
REMARK   71  A    between atoms: _203  and  _204
REMARK   72  A    between atoms: _203  and  _206
REMARK   73  A    between atoms: _206  and  _207
REMARK   74  A    between atoms: _210  and  _212
REMARK   75  A    between atoms: _212  and  _213
REMARK   76  A    between atoms: _212  and  _215
REMARK   77  A    between atoms: _215  and  _216
REMARK   78  A    between atoms: _216  and  _217
REMARK   79  A    between atoms: _217  and  _218
REMARK   80  A    between atoms: _227  and  _229
REMARK   81  A    between atoms: _229  and  _230
REMARK   82  A    between atoms: _232  and  _234
REMARK   83  A    between atoms: _234  and  _235
REMARK   84  A    between atoms: _234  and  _237
REMARK   85  A    between atoms: _237  and  _238
REMARK   86  A    between atoms: _241  and  _243
REMARK   87  A    between atoms: _243  and  _244
REMARK   88  A    between atoms: _243  and  _246
REMARK   89  A    between atoms: _246  and  _247
REMARK   90  A    between atoms: _250  and  _252
REMARK   91  A    between atoms: _252  and  _253
REMARK   92  A    between atoms: _252  and  _255
REMARK   93  A    between atoms: _255  and  _256
REMARK   94  A    between atoms: _262  and  _264
REMARK   95  A    between atoms: _264  and  _265
REMARK   96  A    between atoms: _264  and  _267
REMARK   97  A    between atoms: _267  and  _268
REMARK   98  A    between atoms: _268  and  _269
REMARK   99  A    between atoms: _269  and  _270
REMARK  100  A    between atoms: _279  and  _281
REMARK  101  A    between atoms: _281  and  _282
REMARK  102  A    between atoms: _281  and  _284
REMARK  103  A    between atoms: _284  and  _285
REMARK  104  A    between atoms: _295  and  _297
REMARK  105  A    between atoms: _297  and  _298
REMARK  106  A    between atoms: _297  and  _300
REMARK  107  A    between atoms: _300  and  _301
REMARK  108  A    between atoms: _306  and  _308
REMARK  109  A    between atoms: _308  and  _309
REMARK  110  A    between atoms: _308  and  _311
REMARK  111  A    between atoms: _311  and  _312
REMARK  112  A    between atoms: _316  and  ZN_415
REMARK  113  A    between atoms: _317  and  _319
REMARK  114  A    between atoms: _319  and  _320
REMARK  115  A    between atoms: _319  and  _322
REMARK  116  A    between atoms: _322  and  _323
REMARK  117  A    between atoms: _326  and  _328
REMARK  118  A    between atoms: _328  and  _329
REMARK  119  A    between atoms: _331  and  _333
REMARK  120  A    between atoms: _333  and  _334
REMARK  121  A    between atoms: _333  and  _336
REMARK  122  A    between atoms: _336  and  _337
REMARK  123  A    between atoms: _340  and  _342
REMARK  124  A    between atoms: _342  and  _343
REMARK  125  A    between atoms: _342  and  _345
REMARK  126  A    between atoms: _345  and  _346
REMARK  127  A    between atoms: _349  and  _351
REMARK  128  A    between atoms: _351  and  _352
REMARK  129  A    between atoms: _355  and  _357
REMARK  130  A    between atoms: _357  and  _358
REMARK  131  A    between atoms: _357  and  _360
REMARK  132  A    between atoms: _360  and  _361
REMARK  133  A    between atoms: _366  and  _367
REMARK  134  A    between atoms: _369  and  _371
REMARK  135  A    between atoms: _371  and  _372
REMARK  136  A    between atoms: _371  and  _374
REMARK  137  A    between atoms: _374  and  _375
REMARK  138  A    between atoms: _375  and  _376
REMARK  139  A    between atoms: _379  and  _381
REMARK  140  A    between atoms: _381  and  _382
REMARK  141  A    between atoms: _381  and  _384
REMARK  142  A    between atoms: _384  and  _385
REMARK  143  A    between atoms: _385  and  _386
REMARK  144  A    between atoms: _386  and  _387
REMARK  145  A    between atoms: _396  and  _398
REMARK  146  A    between atoms: _398  and  _399
REMARK  147  A    between atoms: _401  and  _403
REMARK  148  A    between atoms: _403  and  _404
REMARK  149  A    between atoms: _403  and  _406
REMARK  150  A    between atoms: _406  and  _407
REMARK  151  A    between atoms: _410  and  _412
REMARK  152  A    between atoms: _412  and  _413
REMARK                            x       y       z     vdW  Elec       q    Type
REMARK                         _______ _______ _______ _____ _____    ______ ____
ROOT
ATOM      1  CA  ARG A   2      25.261  69.832   7.074  0.00  0.00    +0.149 C 
ENDROOT
BRANCH   1   4
ATOM      2  C   GLU A   1      23.120  71.015   7.438  0.00  0.00    +0.238 C 
ATOM      3  O   GLU A   1      22.640  70.084   8.098  0.00  0.00    -0.274 OA
ATOM      4  N   ARG A   2      24.338  70.966   6.912  0.00  0.00    -0.297 N 
ATOM      5  H   ARG A   2      24.660  71.780   6.350  0.00  0.00    +0.150 HD
BRANCH   2   6
ATOM      6  CA  GLU A   1      22.277  72.284   7.219  0.00  0.00    +0.145 C 
BRANCH   6   7
ATOM      7  N   GLU A   1      22.620  73.014   5.989  0.00  0.00    -0.238 NA
ATOM      8  H   GLU A   1      23.060  73.954   6.054  0.00  0.00    +0.142 HD
ENDBRANCH   6   7
BRANCH   6   9
ATOM      9  CB  GLU A   1      20.754  71.964   7.288  0.00  0.00    +0.038 C 
BRANCH   9  10
ATOM     10  CG  GLU A   1      19.939  73.264   7.231  0.00  0.00    +0.116 C 
BRANCH  10  11
ATOM     11  CD  GLU A   1      18.457  73.012   7.279  0.00  0.00    +0.365 C 
ATOM     12  OE2 GLU A   1      17.700  73.990   7.408  0.00  0.00    -0.246 OA
ATOM     13  OE1 GLU A   1      18.039  71.837   7.194  0.00  0.00    -0.246 OA
ENDBRANCH  10  11
ENDBRANCH   9  10
ENDBRANCH   6   9
ENDBRANCH   2   6
ENDBRANCH   1   4
BRANCH   1  14
ATOM     14  C   ARG A   2      26.509  70.237   7.839  0.00  0.00    +0.241 C 
ATOM     15  N   GLY A   3      26.488  71.388   8.473  0.00  0.00    -0.295 N 
ATOM     16  H   GLY A   3      25.677  72.024   8.334  0.00  0.00    +0.150 HD
ATOM     17  O   ARG A   2      27.466  69.470   7.861  0.00  0.00    -0.273 OA
BRANCH  15  18
ATOM     18  CA  GLY A   3      27.559  71.800   9.360  0.00  0.00    +0.176 C 
BRANCH  18  19
ATOM     19  C   GLY A   3      28.526  72.812   8.850  0.00  0.00    +0.243 C 
ATOM     20  O   GLY A   3      29.330  73.347   9.627  0.00  0.00    -0.273 OA
ATOM     21  N   LEU A   4      28.472  73.144   7.574  0.00  0.00    -0.297 N 
ATOM     22  H   LEU A   4      27.736  72.740   6.960  0.00  0.00    +0.150 HD
BRANCH  21  23
ATOM     23  CA  LEU A   4      29.457  74.087   7.023  0.00  0.00    +0.149 C 
BRANCH  23  24
ATOM     24  C   LEU A   4      29.210  75.486   7.509  0.00  0.00    +0.241 C 
ATOM     25  N   GLY A   5      27.965  75.903   7.696  0.00  0.00    -0.296 N 
ATOM     26  H   GLY A   5      27.188  75.264   7.431  0.00  0.00    +0.150 HD
ATOM     27  O   LEU A   4      30.172  76.272   7.687  0.00  0.00    -0.273 OA
BRANCH  25  28
ATOM     28  CA  GLY A   5      27.626  77.199   8.249  0.00  0.00    +0.163 C 
BRANCH  28  29
ATOM     29  C   GLY A   5      27.908  78.362   7.325  0.00  0.00    +0.229 C 
ATOM     30  O   GLY A   5      28.110  79.472   7.789  0.00  0.00    -0.286 OA
ENDBRANCH  28  29
ENDBRANCH  25  28
ENDBRANCH  23  24
BRANCH  23  31
ATOM     31  CB  LEU A   4      29.415  73.966   5.490  0.00  0.00    +0.029 C 
BRANCH  31  32
ATOM     32  CG  LEU A   4      30.226  75.000   4.716  0.00  0.00    +0.002 C 
ATOM     33  CD2 LEU A   4      31.704  74.980   5.107  0.00  0.00    +0.000 C 
ATOM     34  CD1 LEU A   4      30.091  74.774   3.224  0.00  0.00    +0.000 C 
ENDBRANCH  31  32
ENDBRANCH  23  31
ENDBRANCH  21  23
ENDBRANCH  18  19
ENDBRANCH  15  18
ENDBRANCH   1  14
BRANCH   1  35
ATOM     35  CB  ARG A   2      25.563  69.183   5.726  0.00  0.00    +0.033 C 
BRANCH  35  36
ATOM     36  CG  ARG A   2      24.335  68.615   4.960  0.00  0.00    +0.045 C 
BRANCH  36  37
ATOM     37  CD  ARG A   2      23.525  67.680   5.799  0.00  0.00    +0.174 C 
BRANCH  37  38
ATOM     38  NE  ARG A   2      22.436  66.963   5.163  0.00  0.00    -0.265 N 
ATOM     39  CZ  ARG A   2      21.242  67.476   4.901  0.00  0.00    +0.342 C 
ATOM     40  NH2 ARG A   2      20.976  68.752   5.119  0.00  0.00    -0.292 N 
ATOM     41 HH21 ARG A   2      21.712  69.378   5.505  0.00  0.00    +0.255 HD
ATOM     42 HH22 ARG A   2      20.031  69.130   4.905  0.00  0.00    +0.255 HD
ATOM     43  NH1 ARG A   2      20.303  66.654   4.383  0.00  0.00    -0.292 N 
ATOM     44 HH11 ARG A   2      20.529  65.655   4.203  0.00  0.00    +0.255 HD
ATOM     45 HH12 ARG A   2      19.355  67.020   4.164  0.00  0.00    +0.255 HD
ATOM     46  HE  ARG A   2      22.604  65.973   4.893  0.00  0.00    +0.259 HD
ENDBRANCH  37  38
ENDBRANCH  36  37
ENDBRANCH  35  36
ENDBRANCH   1  35
TORSDOF 19
REMARK  Name = ../refined-set-2016/3ddf/3ddf_pocket.pdb
REMARK  152 active torsions:
REMARK  status: ('A' for Active; 'I' for Inactive)
REMARK    1  A    between atoms: _1  and  _3
REMARK    2  A    between atoms: _14  and  _17
REMARK    3  A    between atoms: _17  and  _18
REMARK    4  A    between atoms: _25  and  _26
REMARK    5  A    between atoms: _33  and  _34
REMARK    6  A    between atoms: _39  and  _41
REMARK    7  A    between atoms: _41  and  _42
REMARK    8  A    between atoms: _44  and  _46
REMARK    9  A    between atoms: _46  and  _47
REMARK   10  A    between atoms: _46  and  _49
REMARK   11  A    between atoms: _49  and  _50
REMARK   12  A    between atoms: _60  and  _62
REMARK   13  A    between atoms: _62  and  _63
REMARK   14  A    between atoms: _62  and  _65
REMARK   15  A    between atoms: _65  and  _66
REMARK   16  A    between atoms: _69  and  _71
REMARK   17  A    between atoms: _71  and  _72
REMARK   18  A    between atoms: _71  and  _74
REMARK   19  A    between atoms: _74  and  _75
REMARK   20  A    between atoms: _80  and  _81
REMARK   21  A    between atoms: _83  and  _85
REMARK   22  A    between atoms: _85  and  _86
REMARK   23  A    between atoms: _85  and  _88
REMARK   24  A    between atoms: _88  and  _89
REMARK   25  A    between atoms: _89  and  _90
REMARK   26  A    between atoms: _93  and  _95
REMARK   27  A    between atoms: _95  and  _96
REMARK   28  A    between atoms: _95  and  _98
REMARK   29  A    between atoms: _98  and  _99
REMARK   30  A    between atoms: _99  and  _100
REMARK   31  A    between atoms: _102  and  _104
REMARK   32  A    between atoms: _104  and  _105
REMARK   33  A    between atoms: _104  and  _107
REMARK   34  A    between atoms: _107  and  _108
REMARK   35  A    between atoms: _111  and  _113
REMARK   36  A    between atoms: _113  and  _114
REMARK   37  A    between atoms: _113  and  _116
REMARK   38  A    between atoms: _116  and  _117
REMARK   39  A    between atoms: _117  and  _118
REMARK   40  A    between atoms: _118  and  ZN_415
REMARK   41  A    between atoms: _121  and  _122
REMARK   42  A    between atoms: _127  and  _129
REMARK   43  A    between atoms: _129  and  _130
REMARK   44  A    between atoms: _129  and  _132
REMARK   45  A    between atoms: _132  and  _133
REMARK   46  A    between atoms: _139  and  _141
REMARK   47  A    between atoms: _141  and  _142
REMARK   48  A    between atoms: _141  and  _144
REMARK   49  A    between atoms: _144  and  _145
REMARK   50  A    between atoms: _145  and  _146
REMARK   51  A    between atoms: _146  and  _147
REMARK   52  A    between atoms: _156  and  _158
REMARK   53  A    between atoms: _158  and  _159
REMARK   54  A    between atoms: _158  and  _161
REMARK   55  A    between atoms: _161  and  _162
REMARK   56  A    between atoms: _167  and  _168
REMARK   57  A    between atoms: _170  and  _172
REMARK   58  A    between atoms: _172  and  _173
REMARK   59  A    between atoms: _172  and  _175
REMARK   60  A    between atoms: _175  and  _176
REMARK   61  A    between atoms: _178  and  _180
REMARK   62  A    between atoms: _180  and  _181
REMARK   63  A    between atoms: _180  and  _183
REMARK   64  A    between atoms: _183  and  _184
REMARK   65  A    between atoms: _189  and  _190
REMARK   66  A    between atoms: _192  and  _194
REMARK   67  A    between atoms: _194  and  _195
REMARK   68  A    between atoms: _194  and  _197
REMARK   69  A    between atoms: _197  and  _198
REMARK   70  A    between atoms: _201  and  _203
REMARK   71  A    between atoms: _203  and  _204
REMARK   72  A    between atoms: _203  and  _206
REMARK   73  A    between atoms: _206  and  _207
REMARK   74  A    between atoms: _210  and  _212
REMARK   75  A    between atoms: _212  and  _213
REMARK   76  A    between atoms: _212  and  _215
REMARK   77  A    between atoms: _215  and  _216
REMARK   78  A    between atoms: _216  and  _217
REMARK   79  A    between atoms: _217  and  _218
REMARK   80  A    between atoms: _227  and  _229
REMARK   81  A    between atoms: _229  and  _230
REMARK   82  A    between atoms: _232  and  _234
REMARK   83  A    between atoms: _234  and  _235
REMARK   84  A    between atoms: _234  and  _237
REMARK   85  A    between atoms: _237  and  _238
REMARK   86  A    between atoms: _241  and  _243
REMARK   87  A    between atoms: _243  and  _244
REMARK   88  A    between atoms: _243  and  _246
REMARK   89  A    between atoms: _246  and  _247
REMARK   90  A    between atoms: _250  and  _252
REMARK   91  A    between atoms: _252  and  _253
REMARK   92  A    between atoms: _252  and  _255
REMARK   93  A    between atoms: _255  and  _256
REMARK   94  A    between atoms: _262  and  _264
REMARK   95  A    between atoms: _264  and  _265
REMARK   96  A    between atoms: _264  and  _267
REMARK   97  A    between atoms: _267  and  _268
REMARK   98  A    between atoms: _268  and  _269
REMARK   99  A    between atoms: _269  and  _270
REMARK  100  A    between atoms: _279  and  _281
REMARK  101  A    between atoms: _281  and  _282
REMARK  102  A    between atoms: _281  and  _284
REMARK  103  A    between atoms: _284  and  _285
REMARK  104  A    between atoms: _295  and  _297
REMARK  105  A    between atoms: _297  and  _298
REMARK  106  A    between atoms: _297  and  _300
REMARK  107  A    between atoms: _300  and  _301
REMARK  108  A    between atoms: _306  and  _308
REMARK  109  A    between atoms: _308  and  _309
REMARK  110  A    between atoms: _308  and  _311
REMARK  111  A    between atoms: _311  and  _312
REMARK  112  A    between atoms: _316  and  ZN_415
REMARK  113  A    between atoms: _317  and  _319
REMARK  114  A    between atoms: _319  and  _320
REMARK  115  A    between atoms: _319  and  _322
REMARK  116  A    between atoms: _322  and  _323
REMARK  117  A    between atoms: _326  and  _328
REMARK  118  A    between atoms: _328  and  _329
REMARK  119  A    between atoms: _331  and  _333
REMARK  120  A    between atoms: _333  and  _334
REMARK  121  A    between atoms: _333  and  _336
REMARK  122  A    between atoms: _336  and  _337
REMARK  123  A    between atoms: _340  and  _342
REMARK  124  A    between atoms: _342  and  _343
REMARK  125  A    between atoms: _342  and  _345
REMARK  126  A    between atoms: _345  and  _346
REMARK  127  A    between atoms: _349  and  _351
REMARK  128  A    between atoms: _351  and  _352
REMARK  129  A    between atoms: _355  and  _357
REMARK  130  A    between atoms: _357  and  _358
REMARK  131  A    between atoms: _357  and  _360
REMARK  132  A    between atoms: _360  and  _361
REMARK  133  A    between atoms: _366  and  _367
REMARK  134  A    between atoms: _369  and  _371
REMARK  135  A    between atoms: _371  and  _372
REMARK  136  A    between atoms: _371  and  _374
REMARK  137  A    between atoms: _374  and  _375
REMARK  138  A    between atoms: _375  and  _376
REMARK  139  A    between atoms: _379  and  _381
REMARK  140  A    between atoms: _381  and  _382
REMARK  141  A    between atoms: _381  and  _384
REMARK  142  A    between atoms: _384  and  _385
REMARK  143  A    between atoms: _385  and  _386
REMARK  144  A    between atoms: _386  and  _387
REMARK  145  A    between atoms: _396  and  _398
REMARK  146  A    between atoms: _398  and  _399
REMARK  147  A    between atoms: _401  and  _403
REMARK  148  A    between atoms: _403  and  _404
REMARK  149  A    between atoms: _403  and  _406
REMARK  150  A    between atoms: _406  and  _407
REMARK  151  A    between atoms: _410  and  _412
REMARK  152  A    between atoms: _412  and  _413
REMARK                            x       y       z     vdW  Elec       q    Type
REMARK                         _______ _______ _______ _____ _____    ______ ____
ROOT
ATOM      1  O   HOH     1      27.074  59.553   8.408  0.00  0.00    +0.000 OA
ENDROOT
TORSDOF 0
REMARK  Name = ../refined-set-2016/3ddf/3ddf_pocket.pdb
REMARK  152 active torsions:
REMARK  status: ('A' for Active; 'I' for Inactive)
REMARK    1  A    between atoms: _1  and  _3
REMARK    2  A    between atoms: _14  and  _17
REMARK    3  A    between atoms: _17  and  _18
REMARK    4  A    between atoms: _25  and  _26
REMARK    5  A    between atoms: _33  and  _34
REMARK    6  A    between atoms: _39  and  _41
REMARK    7  A    between atoms: _41  and  _42
REMARK    8  A    between atoms: _44  and  _46
REMARK    9  A    between atoms: _46  and  _47
REMARK   10  A    between atoms: _46  and  _49
REMARK   11  A    between atoms: _49  and  _50
REMARK   12  A    between atoms: _60  and  _62
REMARK   13  A    between atoms: _62  and  _63
REMARK   14  A    between atoms: _62  and  _65
REMARK   15  A    between atoms: _65  and  _66
REMARK   16  A    between atoms: _69  and  _71
REMARK   17  A    between atoms: _71  and  _72
REMARK   18  A    between atoms: _71  and  _74
REMARK   19  A    between atoms: _74  and  _75
REMARK   20  A    between atoms: _80  and  _81
REMARK   21  A    between atoms: _83  and  _85
REMARK   22  A    between atoms: _85  and  _86
REMARK   23  A    between atoms: _85  and  _88
REMARK   24  A    between atoms: _88  and  _89
REMARK   25  A    between atoms: _89  and  _90
REMARK   26  A    between atoms: _93  and  _95
REMARK   27  A    between atoms: _95  and  _96
REMARK   28  A    between atoms: _95  and  _98
REMARK   29  A    between atoms: _98  and  _99
REMARK   30  A    between atoms: _99  and  _100
REMARK   31  A    between atoms: _102  and  _104
REMARK   32  A    between atoms: _104  and  _105
REMARK   33  A    between atoms: _104  and  _107
REMARK   34  A    between atoms: _107  and  _108
REMARK   35  A    between atoms: _111  and  _113
REMARK   36  A    between atoms: _113  and  _114
REMARK   37  A    between atoms: _113  and  _116
REMARK   38  A    between atoms: _116  and  _117
REMARK   39  A    between atoms: _117  and  _118
REMARK   40  A    between atoms: _118  and  ZN_415
REMARK   41  A    between atoms: _121  and  _122
REMARK   42  A    between atoms: _127  and  _129
REMARK   43  A    between atoms: _129  and  _130
REMARK   44  A    between atoms: _129  and  _132
REMARK   45  A    between atoms: _132  and  _133
REMARK   46  A    between atoms: _139  and  _141
REMARK   47  A    between atoms: _141  and  _142
REMARK   48  A    between atoms: _141  and  _144
REMARK   49  A    between atoms: _144  and  _145
REMARK   50  A    between atoms: _145  and  _146
REMARK   51  A    between atoms: _146  and  _147
REMARK   52  A    between atoms: _156  and  _158
REMARK   53  A    between atoms: _158  and  _159
REMARK   54  A    between atoms: _158  and  _161
REMARK   55  A    between atoms: _161  and  _162
REMARK   56  A    between atoms: _167  and  _168
REMARK   57  A    between atoms: _170  and  _172
REMARK   58  A    between atoms: _172  and  _173
REMARK   59  A    between atoms: _172  and  _175
REMARK   60  A    between atoms: _175  and  _176
REMARK   61  A    between atoms: _178  and  _180
REMARK   62  A    between atoms: _180  and  _181
REMARK   63  A    between atoms: _180  and  _183
REMARK   64  A    between atoms: _183  and  _184
REMARK   65  A    between atoms: _189  and  _190
REMARK   66  A    between atoms: _192  and  _194
REMARK   67  A    between atoms: _194  and  _195
REMARK   68  A    between atoms: _194  and  _197
REMARK   69  A    between atoms: _197  and  _198
REMARK   70  A    between atoms: _201  and  _203
REMARK   71  A    between atoms: _203  and  _204
REMARK   72  A    between atoms: _203  and  _206
REMARK   73  A    between atoms: _206  and  _207
REMARK   74  A    between atoms: _210  and  _212
REMARK   75  A    between atoms: _212  and  _213
REMARK   76  A    between atoms: _212  and  _215
REMARK   77  A    between atoms: _215  and  _216
REMARK   78  A    between atoms: _216  and  _217
REMARK   79  A    between atoms: _217  and  _218
REMARK   80  A    between atoms: _227  and  _229
REMARK   81  A    between atoms: _229  and  _230
REMARK   82  A    between atoms: _232  and  _234
REMARK   83  A    between atoms: _234  and  _235
REMARK   84  A    between atoms: _234  and  _237
REMARK   85  A    between atoms: _237  and  _238
REMARK   86  A    between atoms: _241  and  _243
REMARK   87  A    between atoms: _243  and  _244
REMARK   88  A    between atoms: _243  and  _246
REMARK   89  A    between atoms: _246  and  _247
REMARK   90  A    between atoms: _250  and  _252
REMARK   91  A    between atoms: _252  and  _253
REMARK   92  A    between atoms: _252  and  _255
REMARK   93  A    between atoms: _255  and  _256
REMARK   94  A    between atoms: _262  and  _264
REMARK   95  A    between atoms: _264  and  _265
REMARK   96  A    between atoms: _264  and  _267
REMARK   97  A    between atoms: _267  and  _268
REMARK   98  A    between atoms: _268  and  _269
REMARK   99  A    between atoms: _269  and  _270
REMARK  100  A    between atoms: _279  and  _281
REMARK  101  A    between atoms: _281  and  _282
REMARK  102  A    between atoms: _281  and  _284
REMARK  103  A    between atoms: _284  and  _285
REMARK  104  A    between atoms: _295  and  _297
REMARK  105  A    between atoms: _297  and  _298
REMARK  106  A    between atoms: _297  and  _300
REMARK  107  A    between atoms: _300  and  _301
REMARK  108  A    between atoms: _306  and  _308
REMARK  109  A    between atoms: _308  and  _309
REMARK  110  A    between atoms: _308  and  _311
REMARK  111  A    between atoms: _311  and  _312
REMARK  112  A    between atoms: _316  and  ZN_415
REMARK  113  A    between atoms: _317  and  _319
REMARK  114  A    between atoms: _319  and  _320
REMARK  115  A    between atoms: _319  and  _322
REMARK  116  A    between atoms: _322  and  _323
REMARK  117  A    between atoms: _326  and  _328
REMARK  118  A    between atoms: _328  and  _329
REMARK  119  A    between atoms: _331  and  _333
REMARK  120  A    between atoms: _333  and  _334
REMARK  121  A    between atoms: _333  and  _336
REMARK  122  A    between atoms: _336  and  _337
REMARK  123  A    between atoms: _340  and  _342
REMARK  124  A    between atoms: _342  and  _343
REMARK  125  A    between atoms: _342  and  _345
REMARK  126  A    between atoms: _345  and  _346
REMARK  127  A    between atoms: _349  and  _351
REMARK  128  A    between atoms: _351  and  _352
REMARK  129  A    between atoms: _355  and  _357
REMARK  130  A    between atoms: _357  and  _358
REMARK  131  A    between atoms: _357  and  _360
REMARK  132  A    between atoms: _360  and  _361
REMARK  133  A    between atoms: _366  and  _367
REMARK  134  A    between atoms: _369  and  _371
REMARK  135  A    between atoms: _371  and  _372
REMARK  136  A    between atoms: _371  and  _374
REMARK  137  A    between atoms: _374  and  _375
REMARK  138  A    between atoms: _375  and  _376
REMARK  139  A    between atoms: _379  and  _381
REMARK  140  A    between atoms: _381  and  _382
REMARK  141  A    between atoms: _381  and  _384
REMARK  142  A    between atoms: _384  and  _385
REMARK  143  A    between atoms: _385  and  _386
REMARK  144  A    between atoms: _386  and  _387
REMARK  145  A    between atoms: _396  and  _398
REMARK  146  A    between atoms: _398  and  _399
REMARK  147  A    between atoms: _401  and  _403
REMARK  148  A    between atoms: _403  and  _404
REMARK  149  A    between atoms: _403  and  _406
REMARK  150  A    between atoms: _406  and  _407
REMARK  151  A    between atoms: _410  and  _412
REMARK  152  A    between atoms: _412  and  _413
REMARK                            x       y       z     vdW  Elec       q    Type
REMARK                         _______ _______ _______ _____ _____    ______ ____
ROOT
ATOM      1  O   HOH     1      27.230  63.873   9.796  0.00  0.00    +0.000 OA
ENDROOT
TORSDOF 0
REMARK  Name = ../refined-set-2016/3ddf/3ddf_pocket.pdb
REMARK  152 active torsions:
REMARK  status: ('A' for Active; 'I' for Inactive)
REMARK    1  A    between atoms: _1  and  _3
REMARK    2  A    between atoms: _14  and  _17
REMARK    3  A    between atoms: _17  and  _18
REMARK    4  A    between atoms: _25  and  _26
REMARK    5  A    between atoms: _33  and  _34
REMARK    6  A    between atoms: _39  and  _41
REMARK    7  A    between atoms: _41  and  _42
REMARK    8  A    between atoms: _44  and  _46
REMARK    9  A    between atoms: _46  and  _47
REMARK   10  A    between atoms: _46  and  _49
REMARK   11  A    between atoms: _49  and  _50
REMARK   12  A    between atoms: _60  and  _62
REMARK   13  A    between atoms: _62  and  _63
REMARK   14  A    between atoms: _62  and  _65
REMARK   15  A    between atoms: _65  and  _66
REMARK   16  A    between atoms: _69  and  _71
REMARK   17  A    between atoms: _71  and  _72
REMARK   18  A    between atoms: _71  and  _74
REMARK   19  A    between atoms: _74  and  _75
REMARK   20  A    between atoms: _80  and  _81
REMARK   21  A    between atoms: _83  and  _85
REMARK   22  A    between atoms: _85  and  _86
REMARK   23  A    between atoms: _85  and  _88
REMARK   24  A    between atoms: _88  and  _89
REMARK   25  A    between atoms: _89  and  _90
REMARK   26  A    between atoms: _93  and  _95
REMARK   27  A    between atoms: _95  and  _96
REMARK   28  A    between atoms: _95  and  _98
REMARK   29  A    between atoms: _98  and  _99
REMARK   30  A    between atoms: _99  and  _100
REMARK   31  A    between atoms: _102  and  _104
REMARK   32  A    between atoms: _104  and  _105
REMARK   33  A    between atoms: _104  and  _107
REMARK   34  A    between atoms: _107  and  _108
REMARK   35  A    between atoms: _111  and  _113
REMARK   36  A    between atoms: _113  and  _114
REMARK   37  A    between atoms: _113  and  _116
REMARK   38  A    between atoms: _116  and  _117
REMARK   39  A    between atoms: _117  and  _118
REMARK   40  A    between atoms: _118  and  ZN_415
REMARK   41  A    between atoms: _121  and  _122
REMARK   42  A    between atoms: _127  and  _129
REMARK   43  A    between atoms: _129  and  _130
REMARK   44  A    between atoms: _129  and  _132
REMARK   45  A    between atoms: _132  and  _133
REMARK   46  A    between atoms: _139  and  _141
REMARK   47  A    between atoms: _141  and  _142
REMARK   48  A    between atoms: _141  and  _144
REMARK   49  A    between atoms: _144  and  _145
REMARK   50  A    between atoms: _145  and  _146
REMARK   51  A    between atoms: _146  and  _147
REMARK   52  A    between atoms: _156  and  _158
REMARK   53  A    between atoms: _158  and  _159
REMARK   54  A    between atoms: _158  and  _161
REMARK   55  A    between atoms: _161  and  _162
REMARK   56  A    between atoms: _167  and  _168
REMARK   57  A    between atoms: _170  and  _172
REMARK   58  A    between atoms: _172  and  _173
REMARK   59  A    between atoms: _172  and  _175
REMARK   60  A    between atoms: _175  and  _176
REMARK   61  A    between atoms: _178  and  _180
REMARK   62  A    between atoms: _180  and  _181
REMARK   63  A    between atoms: _180  and  _183
REMARK   64  A    between atoms: _183  and  _184
REMARK   65  A    between atoms: _189  and  _190
REMARK   66  A    between atoms: _192  and  _194
REMARK   67  A    between atoms: _194  and  _195
REMARK   68  A    between atoms: _194  and  _197
REMARK   69  A    between atoms: _197  and  _198
REMARK   70  A    between atoms: _201  and  _203
REMARK   71  A    between atoms: _203  and  _204
REMARK   72  A    between atoms: _203  and  _206
REMARK   73  A    between atoms: _206  and  _207
REMARK   74  A    between atoms: _210  and  _212
REMARK   75  A    between atoms: _212  and  _213
REMARK   76  A    between atoms: _212  and  _215
REMARK   77  A    between atoms: _215  and  _216
REMARK   78  A    between atoms: _216  and  _217
REMARK   79  A    between atoms: _217  and  _218
REMARK   80  A    between atoms: _227  and  _229
REMARK   81  A    between atoms: _229  and  _230
REMARK   82  A    between atoms: _232  and  _234
REMARK   83  A    between atoms: _234  and  _235
REMARK   84  A    between atoms: _234  and  _237
REMARK   85  A    between atoms: _237  and  _238
REMARK   86  A    between atoms: _241  and  _243
REMARK   87  A    between atoms: _243  and  _244
REMARK   88  A    between atoms: _243  and  _246
REMARK   89  A    between atoms: _246  and  _247
REMARK   90  A    between atoms: _250  and  _252
REMARK   91  A    between atoms: _252  and  _253
REMARK   92  A    between atoms: _252  and  _255
REMARK   93  A    between atoms: _255  and  _256
REMARK   94  A    between atoms: _262  and  _264
REMARK   95  A    between atoms: _264  and  _265
REMARK   96  A    between atoms: _264  and  _267
REMARK   97  A    between atoms: _267  and  _268
REMARK   98  A    between atoms: _268  and  _269
REMARK   99  A    between atoms: _269  and  _270
REMARK  100  A    between atoms: _279  and  _281
REMARK  101  A    between atoms: _281  and  _282
REMARK  102  A    between atoms: _281  and  _284
REMARK  103  A    between atoms: _284  and  _285
REMARK  104  A    between atoms: _295  and  _297
REMARK  105  A    between atoms: _297  and  _298
REMARK  106  A    between atoms: _297  and  _300
REMARK  107  A    between atoms: _300  and  _301
REMARK  108  A    between atoms: _306  and  _308
REMARK  109  A    between atoms: _308  and  _309
REMARK  110  A    between atoms: _308  and  _311
REMARK  111  A    between atoms: _311  and  _312
REMARK  112  A    between atoms: _316  and  ZN_415
REMARK  113  A    between atoms: _317  and  _319
REMARK  114  A    between atoms: _319  and  _320
REMARK  115  A    between atoms: _319  and  _322
REMARK  116  A    between atoms: _322  and  _323
REMARK  117  A    between atoms: _326  and  _328
REMARK  118  A    between atoms: _328  and  _329
REMARK  119  A    between atoms: _331  and  _333
REMARK  120  A    between atoms: _333  and  _334
REMARK  121  A    between atoms: _333  and  _336
REMARK  122  A    between atoms: _336  and  _337
REMARK  123  A    between atoms: _340  and  _342
REMARK  124  A    between atoms: _342  and  _343
REMARK  125  A    between atoms: _342  and  _345
REMARK  126  A    between atoms: _345  and  _346
REMARK  127  A    between atoms: _349  and  _351
REMARK  128  A    between atoms: _351  and  _352
REMARK  129  A    between atoms: _355  and  _357
REMARK  130  A    between atoms: _357  and  _358
REMARK  131  A    between atoms: _357  and  _360
REMARK  132  A    between atoms: _360  and  _361
REMARK  133  A    between atoms: _366  and  _367
REMARK  134  A    between atoms: _369  and  _371
REMARK  135  A    between atoms: _371  and  _372
REMARK  136  A    between atoms: _371  and  _374
REMARK  137  A    between atoms: _374  and  _375
REMARK  138  A    between atoms: _375  and  _376
REMARK  139  A    between atoms: _379  and  _381
REMARK  140  A    between atoms: _381  and  _382
REMARK  141  A    between atoms: _381  and  _384
REMARK  142  A    between atoms: _384  and  _385
REMARK  143  A    between atoms: _385  and  _386
REMARK  144  A    between atoms: _386  and  _387
REMARK  145  A    between atoms: _396  and  _398
REMARK  146  A    between atoms: _398  and  _399
REMARK  147  A    between atoms: _401  and  _403
REMARK  148  A    between atoms: _403  and  _404
REMARK  149  A    between atoms: _403  and  _406
REMARK  150  A    between atoms: _406  and  _407
REMARK  151  A    between atoms: _410  and  _412
REMARK  152  A    between atoms: _412  and  _413
REMARK                            x       y       z     vdW  Elec       q    Type
REMARK                         _______ _______ _______ _____ _____    ______ ____
ROOT
ATOM      1  O   HOH     1      26.419  65.468   8.391  0.00  0.00    +0.000 OA
ENDROOT
TORSDOF 0
REMARK  Name = ../refined-set-2016/3ddf/3ddf_pocket.pdb
REMARK  152 active torsions:
REMARK  status: ('A' for Active; 'I' for Inactive)
REMARK    1  A    between atoms: _1  and  _3
REMARK    2  A    between atoms: _14  and  _17
REMARK    3  A    between atoms: _17  and  _18
REMARK    4  A    between atoms: _25  and  _26
REMARK    5  A    between atoms: _33  and  _34
REMARK    6  A    between atoms: _39  and  _41
REMARK    7  A    between atoms: _41  and  _42
REMARK    8  A    between atoms: _44  and  _46
REMARK    9  A    between atoms: _46  and  _47
REMARK   10  A    between atoms: _46  and  _49
REMARK   11  A    between atoms: _49  and  _50
REMARK   12  A    between atoms: _60  and  _62
REMARK   13  A    between atoms: _62  and  _63
REMARK   14  A    between atoms: _62  and  _65
REMARK   15  A    between atoms: _65  and  _66
REMARK   16  A    between atoms: _69  and  _71
REMARK   17  A    between atoms: _71  and  _72
REMARK   18  A    between atoms: _71  and  _74
REMARK   19  A    between atoms: _74  and  _75
REMARK   20  A    between atoms: _80  and  _81
REMARK   21  A    between atoms: _83  and  _85
REMARK   22  A    between atoms: _85  and  _86
REMARK   23  A    between atoms: _85  and  _88
REMARK   24  A    between atoms: _88  and  _89
REMARK   25  A    between atoms: _89  and  _90
REMARK   26  A    between atoms: _93  and  _95
REMARK   27  A    between atoms: _95  and  _96
REMARK   28  A    between atoms: _95  and  _98
REMARK   29  A    between atoms: _98  and  _99
REMARK   30  A    between atoms: _99  and  _100
REMARK   31  A    between atoms: _102  and  _104
REMARK   32  A    between atoms: _104  and  _105
REMARK   33  A    between atoms: _104  and  _107
REMARK   34  A    between atoms: _107  and  _108
REMARK   35  A    between atoms: _111  and  _113
REMARK   36  A    between atoms: _113  and  _114
REMARK   37  A    between atoms: _113  and  _116
REMARK   38  A    between atoms: _116  and  _117
REMARK   39  A    between atoms: _117  and  _118
REMARK   40  A    between atoms: _118  and  ZN_415
REMARK   41  A    between atoms: _121  and  _122
REMARK   42  A    between atoms: _127  and  _129
REMARK   43  A    between atoms: _129  and  _130
REMARK   44  A    between atoms: _129  and  _132
REMARK   45  A    between atoms: _132  and  _133
REMARK   46  A    between atoms: _139  and  _141
REMARK   47  A    between atoms: _141  and  _142
REMARK   48  A    between atoms: _141  and  _144
REMARK   49  A    between atoms: _144  and  _145
REMARK   50  A    between atoms: _145  and  _146
REMARK   51  A    between atoms: _146  and  _147
REMARK   52  A    between atoms: _156  and  _158
REMARK   53  A    between atoms: _158  and  _159
REMARK   54  A    between atoms: _158  and  _161
REMARK   55  A    between atoms: _161  and  _162
REMARK   56  A    between atoms: _167  and  _168
REMARK   57  A    between atoms: _170  and  _172
REMARK   58  A    between atoms: _172  and  _173
REMARK   59  A    between atoms: _172  and  _175
REMARK   60  A    between atoms: _175  and  _176
REMARK   61  A    between atoms: _178  and  _180
REMARK   62  A    between atoms: _180  and  _181
REMARK   63  A    between atoms: _180  and  _183
REMARK   64  A    between atoms: _183  and  _184
REMARK   65  A    between atoms: _189  and  _190
REMARK   66  A    between atoms: _192  and  _194
REMARK   67  A    between atoms: _194  and  _195
REMARK   68  A    between atoms: _194  and  _197
REMARK   69  A    between atoms: _197  and  _198
REMARK   70  A    between atoms: _201  and  _203
REMARK   71  A    between atoms: _203  and  _204
REMARK   72  A    between atoms: _203  and  _206
REMARK   73  A    between atoms: _206  and  _207
REMARK   74  A    between atoms: _210  and  _212
REMARK   75  A    between atoms: _212  and  _213
REMARK   76  A    between atoms: _212  and  _215
REMARK   77  A    between atoms: _215  and  _216
REMARK   78  A    between atoms: _216  and  _217
REMARK   79  A    between atoms: _217  and  _218
REMARK   80  A    between atoms: _227  and  _229
REMARK   81  A    between atoms: _229  and  _230
REMARK   82  A    between atoms: _232  and  _234
REMARK   83  A    between atoms: _234  and  _235
REMARK   84  A    between atoms: _234  and  _237
REMARK   85  A    between atoms: _237  and  _238
REMARK   86  A    between atoms: _241  and  _243
REMARK   87  A    between atoms: _243  and  _244
REMARK   88  A    between atoms: _243  and  _246
REMARK   89  A    between atoms: _246  and  _247
REMARK   90  A    between atoms: _250  and  _252
REMARK   91  A    between atoms: _252  and  _253
REMARK   92  A    between atoms: _252  and  _255
REMARK   93  A    between atoms: _255  and  _256
REMARK   94  A    between atoms: _262  and  _264
REMARK   95  A    between atoms: _264  and  _265
REMARK   96  A    between atoms: _264  and  _267
REMARK   97  A    between atoms: _267  and  _268
REMARK   98  A    between atoms: _268  and  _269
REMARK   99  A    between atoms: _269  and  _270
REMARK  100  A    between atoms: _279  and  _281
REMARK  101  A    between atoms: _281  and  _282
REMARK  102  A    between atoms: _281  and  _284
REMARK  103  A    between atoms: _284  and  _285
REMARK  104  A    between atoms: _295  and  _297
REMARK  105  A    between atoms: _297  and  _298
REMARK  106  A    between atoms: _297  and  _300
REMARK  107  A    between atoms: _300  and  _301
REMARK  108  A    between atoms: _306  and  _308
REMARK  109  A    between atoms: _308  and  _309
REMARK  110  A    between atoms: _308  and  _311
REMARK  111  A    between atoms: _311  and  _312
REMARK  112  A    between atoms: _316  and  ZN_415
REMARK  113  A    between atoms: _317  and  _319
REMARK  114  A    between atoms: _319  and  _320
REMARK  115  A    between atoms: _319  and  _322
REMARK  116  A    between atoms: _322  and  _323
REMARK  117  A    between atoms: _326  and  _328
REMARK  118  A    between atoms: _328  and  _329
REMARK  119  A    between atoms: _331  and  _333
REMARK  120  A    between atoms: _333  and  _334
REMARK  121  A    between atoms: _333  and  _336
REMARK  122  A    between atoms: _336  and  _337
REMARK  123  A    between atoms: _340  and  _342
REMARK  124  A    between atoms: _342  and  _343
REMARK  125  A    between atoms: _342  and  _345
REMARK  126  A    between atoms: _345  and  _346
REMARK  127  A    between atoms: _349  and  _351
REMARK  128  A    between atoms: _351  and  _352
REMARK  129  A    between atoms: _355  and  _357
REMARK  130  A    between atoms: _357  and  _358
REMARK  131  A    between atoms: _357  and  _360
REMARK  132  A    between atoms: _360  and  _361
REMARK  133  A    between atoms: _366  and  _367
REMARK  134  A    between atoms: _369  and  _371
REMARK  135  A    between atoms: _371  and  _372
REMARK  136  A    between atoms: _371  and  _374
REMARK  137  A    between atoms: _374  and  _375
REMARK  138  A    between atoms: _375  and  _376
REMARK  139  A    between atoms: _379  and  _381
REMARK  140  A    between atoms: _381  and  _382
REMARK  141  A    between atoms: _381  and  _384
REMARK  142  A    between atoms: _384  and  _385
REMARK  143  A    between atoms: _385  and  _386
REMARK  144  A    between atoms: _386  and  _387
REMARK  145  A    between atoms: _396  and  _398
REMARK  146  A    between atoms: _398  and  _399
REMARK  147  A    between atoms: _401  and  _403
REMARK  148  A    between atoms: _403  and  _404
REMARK  149  A    between atoms: _403  and  _406
REMARK  150  A    between atoms: _406  and  _407
REMARK  151  A    between atoms: _410  and  _412
REMARK  152  A    between atoms: _412  and  _413
REMARK                            x       y       z     vdW  Elec       q    Type
REMARK                         _______ _______ _______ _____ _____    ______ ____
ROOT
ATOM      1  O   HOH     1      24.352  65.726   9.317  0.00  0.00    +0.000 OA
ENDROOT
TORSDOF 0
REMARK  Name = ../refined-set-2016/3ddf/3ddf_pocket.pdb
REMARK  152 active torsions:
REMARK  status: ('A' for Active; 'I' for Inactive)
REMARK    1  A    between atoms: _1  and  _3
REMARK    2  A    between atoms: _14  and  _17
REMARK    3  A    between atoms: _17  and  _18
REMARK    4  A    between atoms: _25  and  _26
REMARK    5  A    between atoms: _33  and  _34
REMARK    6  A    between atoms: _39  and  _41
REMARK    7  A    between atoms: _41  and  _42
REMARK    8  A    between atoms: _44  and  _46
REMARK    9  A    between atoms: _46  and  _47
REMARK   10  A    between atoms: _46  and  _49
REMARK   11  A    between atoms: _49  and  _50
REMARK   12  A    between atoms: _60  and  _62
REMARK   13  A    between atoms: _62  and  _63
REMARK   14  A    between atoms: _62  and  _65
REMARK   15  A    between atoms: _65  and  _66
REMARK   16  A    between atoms: _69  and  _71
REMARK   17  A    between atoms: _71  and  _72
REMARK   18  A    between atoms: _71  and  _74
REMARK   19  A    between atoms: _74  and  _75
REMARK   20  A    between atoms: _80  and  _81
REMARK   21  A    between atoms: _83  and  _85
REMARK   22  A    between atoms: _85  and  _86
REMARK   23  A    between atoms: _85  and  _88
REMARK   24  A    between atoms: _88  and  _89
REMARK   25  A    between atoms: _89  and  _90
REMARK   26  A    between atoms: _93  and  _95
REMARK   27  A    between atoms: _95  and  _96
REMARK   28  A    between atoms: _95  and  _98
REMARK   29  A    between atoms: _98  and  _99
REMARK   30  A    between atoms: _99  and  _100
REMARK   31  A    between atoms: _102  and  _104
REMARK   32  A    between atoms: _104  and  _105
REMARK   33  A    between atoms: _104  and  _107
REMARK   34  A    between atoms: _107  and  _108
REMARK   35  A    between atoms: _111  and  _113
REMARK   36  A    between atoms: _113  and  _114
REMARK   37  A    between atoms: _113  and  _116
REMARK   38  A    between atoms: _116  and  _117
REMARK   39  A    between atoms: _117  and  _118
REMARK   40  A    between atoms: _118  and  ZN_415
REMARK   41  A    between atoms: _121  and  _122
REMARK   42  A    between atoms: _127  and  _129
REMARK   43  A    between atoms: _129  and  _130
REMARK   44  A    between atoms: _129  and  _132
REMARK   45  A    between atoms: _132  and  _133
REMARK   46  A    between atoms: _139  and  _141
REMARK   47  A    between atoms: _141  and  _142
REMARK   48  A    between atoms: _141  and  _144
REMARK   49  A    between atoms: _144  and  _145
REMARK   50  A    between atoms: _145  and  _146
REMARK   51  A    between atoms: _146  and  _147
REMARK   52  A    between atoms: _156  and  _158
REMARK   53  A    between atoms: _158  and  _159
REMARK   54  A    between atoms: _158  and  _161
REMARK   55  A    between atoms: _161  and  _162
REMARK   56  A    between atoms: _167  and  _168
REMARK   57  A    between atoms: _170  and  _172
REMARK   58  A    between atoms: _172  and  _173
REMARK   59  A    between atoms: _172  and  _175
REMARK   60  A    between atoms: _175  and  _176
REMARK   61  A    between atoms: _178  and  _180
REMARK   62  A    between atoms: _180  and  _181
REMARK   63  A    between atoms: _180  and  _183
REMARK   64  A    between atoms: _183  and  _184
REMARK   65  A    between atoms: _189  and  _190
REMARK   66  A    between atoms: _192  and  _194
REMARK   67  A    between atoms: _194  and  _195
REMARK   68  A    between atoms: _194  and  _197
REMARK   69  A    between atoms: _197  and  _198
REMARK   70  A    between atoms: _201  and  _203
REMARK   71  A    between atoms: _203  and  _204
REMARK   72  A    between atoms: _203  and  _206
REMARK   73  A    between atoms: _206  and  _207
REMARK   74  A    between atoms: _210  and  _212
REMARK   75  A    between atoms: _212  and  _213
REMARK   76  A    between atoms: _212  and  _215
REMARK   77  A    between atoms: _215  and  _216
REMARK   78  A    between atoms: _216  and  _217
REMARK   79  A    between atoms: _217  and  _218
REMARK   80  A    between atoms: _227  and  _229
REMARK   81  A    between atoms: _229  and  _230
REMARK   82  A    between atoms: _232  and  _234
REMARK   83  A    between atoms: _234  and  _235
REMARK   84  A    between atoms: _234  and  _237
REMARK   85  A    between atoms: _237  and  _238
REMARK   86  A    between atoms: _241  and  _243
REMARK   87  A    between atoms: _243  and  _244
REMARK   88  A    between atoms: _243  and  _246
REMARK   89  A    between atoms: _246  and  _247
REMARK   90  A    between atoms: _250  and  _252
REMARK   91  A    between atoms: _252  and  _253
REMARK   92  A    between atoms: _252  and  _255
REMARK   93  A    between atoms: _255  and  _256
REMARK   94  A    between atoms: _262  and  _264
REMARK   95  A    between atoms: _264  and  _265
REMARK   96  A    between atoms: _264  and  _267
REMARK   97  A    between atoms: _267  and  _268
REMARK   98  A    between atoms: _268  and  _269
REMARK   99  A    between atoms: _269  and  _270
REMARK  100  A    between atoms: _279  and  _281
REMARK  101  A    between atoms: _281  and  _282
REMARK  102  A    between atoms: _281  and  _284
REMARK  103  A    between atoms: _284  and  _285
REMARK  104  A    between atoms: _295  and  _297
REMARK  105  A    between atoms: _297  and  _298
REMARK  106  A    between atoms: _297  and  _300
REMARK  107  A    between atoms: _300  and  _301
REMARK  108  A    between atoms: _306  and  _308
REMARK  109  A    between atoms: _308  and  _309
REMARK  110  A    between atoms: _308  and  _311
REMARK  111  A    between atoms: _311  and  _312
REMARK  112  A    between atoms: _316  and  ZN_415
REMARK  113  A    between atoms: _317  and  _319
REMARK  114  A    between atoms: _319  and  _320
REMARK  115  A    between atoms: _319  and  _322
REMARK  116  A    between atoms: _322  and  _323
REMARK  117  A    between atoms: _326  and  _328
REMARK  118  A    between atoms: _328  and  _329
REMARK  119  A    between atoms: _331  and  _333
REMARK  120  A    between atoms: _333  and  _334
REMARK  121  A    between atoms: _333  and  _336
REMARK  122  A    between atoms: _336  and  _337
REMARK  123  A    between atoms: _340  and  _342
REMARK  124  A    between atoms: _342  and  _343
REMARK  125  A    between atoms: _342  and  _345
REMARK  126  A    between atoms: _345  and  _346
REMARK  127  A    between atoms: _349  and  _351
REMARK  128  A    between atoms: _351  and  _352
REMARK  129  A    between atoms: _355  and  _357
REMARK  130  A    between atoms: _357  and  _358
REMARK  131  A    between atoms: _357  and  _360
REMARK  132  A    between atoms: _360  and  _361
REMARK  133  A    between atoms: _366  and  _367
REMARK  134  A    between atoms: _369  and  _371
REMARK  135  A    between atoms: _371  and  _372
REMARK  136  A    between atoms: _371  and  _374
REMARK  137  A    between atoms: _374  and  _375
REMARK  138  A    between atoms: _375  and  _376
REMARK  139  A    between atoms: _379  and  _381
REMARK  140  A    between atoms: _381  and  _382
REMARK  141  A    between atoms: _381  and  _384
REMARK  142  A    between atoms: _384  and  _385
REMARK  143  A    between atoms: _385  and  _386
REMARK  144  A    between atoms: _386  and  _387
REMARK  145  A    between atoms: _396  and  _398
REMARK  146  A    between atoms: _398  and  _399
REMARK  147  A    between atoms: _401  and  _403
REMARK  148  A    between atoms: _403  and  _404
REMARK  149  A    between atoms: _403  and  _406
REMARK  150  A    between atoms: _406  and  _407
REMARK  151  A    between atoms: _410  and  _412
REMARK  152  A    between atoms: _412  and  _413
REMARK                            x       y       z     vdW  Elec       q    Type
REMARK                         _______ _______ _______ _____ _____    ______ ____
ROOT
ATOM      1  O   HOH     1      24.870  63.330  11.115  0.00  0.00    +0.000 OA
ENDROOT
TORSDOF 0
REMARK  Name = ../refined-set-2016/3ddf/3ddf_pocket.pdb
REMARK  152 active torsions:
REMARK  status: ('A' for Active; 'I' for Inactive)
REMARK    1  A    between atoms: _1  and  _3
REMARK    2  A    between atoms: _14  and  _17
REMARK    3  A    between atoms: _17  and  _18
REMARK    4  A    between atoms: _25  and  _26
REMARK    5  A    between atoms: _33  and  _34
REMARK    6  A    between atoms: _39  and  _41
REMARK    7  A    between atoms: _41  and  _42
REMARK    8  A    between atoms: _44  and  _46
REMARK    9  A    between atoms: _46  and  _47
REMARK   10  A    between atoms: _46  and  _49
REMARK   11  A    between atoms: _49  and  _50
REMARK   12  A    between atoms: _60  and  _62
REMARK   13  A    between atoms: _62  and  _63
REMARK   14  A    between atoms: _62  and  _65
REMARK   15  A    between atoms: _65  and  _66
REMARK   16  A    between atoms: _69  and  _71
REMARK   17  A    between atoms: _71  and  _72
REMARK   18  A    between atoms: _71  and  _74
REMARK   19  A    between atoms: _74  and  _75
REMARK   20  A    between atoms: _80  and  _81
REMARK   21  A    between atoms: _83  and  _85
REMARK   22  A    between atoms: _85  and  _86
REMARK   23  A    between atoms: _85  and  _88
REMARK   24  A    between atoms: _88  and  _89
REMARK   25  A    between atoms: _89  and  _90
REMARK   26  A    between atoms: _93  and  _95
REMARK   27  A    between atoms: _95  and  _96
REMARK   28  A    between atoms: _95  and  _98
REMARK   29  A    between atoms: _98  and  _99
REMARK   30  A    between atoms: _99  and  _100
REMARK   31  A    between atoms: _102  and  _104
REMARK   32  A    between atoms: _104  and  _105
REMARK   33  A    between atoms: _104  and  _107
REMARK   34  A    between atoms: _107  and  _108
REMARK   35  A    between atoms: _111  and  _113
REMARK   36  A    between atoms: _113  and  _114
REMARK   37  A    between atoms: _113  and  _116
REMARK   38  A    between atoms: _116  and  _117
REMARK   39  A    between atoms: _117  and  _118
REMARK   40  A    between atoms: _118  and  ZN_415
REMARK   41  A    between atoms: _121  and  _122
REMARK   42  A    between atoms: _127  and  _129
REMARK   43  A    between atoms: _129  and  _130
REMARK   44  A    between atoms: _129  and  _132
REMARK   45  A    between atoms: _132  and  _133
REMARK   46  A    between atoms: _139  and  _141
REMARK   47  A    between atoms: _141  and  _142
REMARK   48  A    between atoms: _141  and  _144
REMARK   49  A    between atoms: _144  and  _145
REMARK   50  A    between atoms: _145  and  _146
REMARK   51  A    between atoms: _146  and  _147
REMARK   52  A    between atoms: _156  and  _158
REMARK   53  A    between atoms: _158  and  _159
REMARK   54  A    between atoms: _158  and  _161
REMARK   55  A    between atoms: _161  and  _162
REMARK   56  A    between atoms: _167  and  _168
REMARK   57  A    between atoms: _170  and  _172
REMARK   58  A    between atoms: _172  and  _173
REMARK   59  A    between atoms: _172  and  _175
REMARK   60  A    between atoms: _175  and  _176
REMARK   61  A    between atoms: _178  and  _180
REMARK   62  A    between atoms: _180  and  _181
REMARK   63  A    between atoms: _180  and  _183
REMARK   64  A    between atoms: _183  and  _184
REMARK   65  A    between atoms: _189  and  _190
REMARK   66  A    between atoms: _192  and  _194
REMARK   67  A    between atoms: _194  and  _195
REMARK   68  A    between atoms: _194  and  _197
REMARK   69  A    between atoms: _197  and  _198
REMARK   70  A    between atoms: _201  and  _203
REMARK   71  A    between atoms: _203  and  _204
REMARK   72  A    between atoms: _203  and  _206
REMARK   73  A    between atoms: _206  and  _207
REMARK   74  A    between atoms: _210  and  _212
REMARK   75  A    between atoms: _212  and  _213
REMARK   76  A    between atoms: _212  and  _215
REMARK   77  A    between atoms: _215  and  _216
REMARK   78  A    between atoms: _216  and  _217
REMARK   79  A    between atoms: _217  and  _218
REMARK   80  A    between atoms: _227  and  _229
REMARK   81  A    between atoms: _229  and  _230
REMARK   82  A    between atoms: _232  and  _234
REMARK   83  A    between atoms: _234  and  _235
REMARK   84  A    between atoms: _234  and  _237
REMARK   85  A    between atoms: _237  and  _238
REMARK   86  A    between atoms: _241  and  _243
REMARK   87  A    between atoms: _243  and  _244
REMARK   88  A    between atoms: _243  and  _246
REMARK   89  A    between atoms: _246  and  _247
REMARK   90  A    between atoms: _250  and  _252
REMARK   91  A    between atoms: _252  and  _253
REMARK   92  A    between atoms: _252  and  _255
REMARK   93  A    between atoms: _255  and  _256
REMARK   94  A    between atoms: _262  and  _264
REMARK   95  A    between atoms: _264  and  _265
REMARK   96  A    between atoms: _264  and  _267
REMARK   97  A    between atoms: _267  and  _268
REMARK   98  A    between atoms: _268  and  _269
REMARK   99  A    between atoms: _269  and  _270
REMARK  100  A    between atoms: _279  and  _281
REMARK  101  A    between atoms: _281  and  _282
REMARK  102  A    between atoms: _281  and  _284
REMARK  103  A    between atoms: _284  and  _285
REMARK  104  A    between atoms: _295  and  _297
REMARK  105  A    between atoms: _297  and  _298
REMARK  106  A    between atoms: _297  and  _300
REMARK  107  A    between atoms: _300  and  _301
REMARK  108  A    between atoms: _306  and  _308
REMARK  109  A    between atoms: _308  and  _309
REMARK  110  A    between atoms: _308  and  _311
REMARK  111  A    between atoms: _311  and  _312
REMARK  112  A    between atoms: _316  and  ZN_415
REMARK  113  A    between atoms: _317  and  _319
REMARK  114  A    between atoms: _319  and  _320
REMARK  115  A    between atoms: _319  and  _322
REMARK  116  A    between atoms: _322  and  _323
REMARK  117  A    between atoms: _326  and  _328
REMARK  118  A    between atoms: _328  and  _329
REMARK  119  A    between atoms: _331  and  _333
REMARK  120  A    between atoms: _333  and  _334
REMARK  121  A    between atoms: _333  and  _336
REMARK  122  A    between atoms: _336  and  _337
REMARK  123  A    between atoms: _340  and  _342
REMARK  124  A    between atoms: _342  and  _343
REMARK  125  A    between atoms: _342  and  _345
REMARK  126  A    between atoms: _345  and  _346
REMARK  127  A    between atoms: _349  and  _351
REMARK  128  A    between atoms: _351  and  _352
REMARK  129  A    between atoms: _355  and  _357
REMARK  130  A    between atoms: _357  and  _358
REMARK  131  A    between atoms: _357  and  _360
REMARK  132  A    between atoms: _360  and  _361
REMARK  133  A    between atoms: _366  and  _367
REMARK  134  A    between atoms: _369  and  _371
REMARK  135  A    between atoms: _371  and  _372
REMARK  136  A    between atoms: _371  and  _374
REMARK  137  A    between atoms: _374  and  _375
REMARK  138  A    between atoms: _375  and  _376
REMARK  139  A    between atoms: _379  and  _381
REMARK  140  A    between atoms: _381  and  _382
REMARK  141  A    between atoms: _381  and  _384
REMARK  142  A    between atoms: _384  and  _385
REMARK  143  A    between atoms: _385  and  _386
REMARK  144  A    between atoms: _386  and  _387
REMARK  145  A    between atoms: _396  and  _398
REMARK  146  A    between atoms: _398  and  _399
REMARK  147  A    between atoms: _401  and  _403
REMARK  148  A    between atoms: _403  and  _404
REMARK  149  A    between atoms: _403  and  _406
REMARK  150  A    between atoms: _406  and  _407
REMARK  151  A    between atoms: _410  and  _412
REMARK  152  A    between atoms: _412  and  _413
REMARK                            x       y       z     vdW  Elec       q    Type
REMARK                         _______ _______ _______ _____ _____    ______ ____
ROOT
ATOM      1  O   HOH     1      26.211  63.571  13.439  0.00  0.00    +0.000 OA
ENDROOT
TORSDOF 0
REMARK  Name = ../refined-set-2016/3ddf/3ddf_pocket.pdb
REMARK  152 active torsions:
REMARK  status: ('A' for Active; 'I' for Inactive)
REMARK    1  A    between atoms: _1  and  _3
REMARK    2  A    between atoms: _14  and  _17
REMARK    3  A    between atoms: _17  and  _18
REMARK    4  A    between atoms: _25  and  _26
REMARK    5  A    between atoms: _33  and  _34
REMARK    6  A    between atoms: _39  and  _41
REMARK    7  A    between atoms: _41  and  _42
REMARK    8  A    between atoms: _44  and  _46
REMARK    9  A    between atoms: _46  and  _47
REMARK   10  A    between atoms: _46  and  _49
REMARK   11  A    between atoms: _49  and  _50
REMARK   12  A    between atoms: _60  and  _62
REMARK   13  A    between atoms: _62  and  _63
REMARK   14  A    between atoms: _62  and  _65
REMARK   15  A    between atoms: _65  and  _66
REMARK   16  A    between atoms: _69  and  _71
REMARK   17  A    between atoms: _71  and  _72
REMARK   18  A    between atoms: _71  and  _74
REMARK   19  A    between atoms: _74  and  _75
REMARK   20  A    between atoms: _80  and  _81
REMARK   21  A    between atoms: _83  and  _85
REMARK   22  A    between atoms: _85  and  _86
REMARK   23  A    between atoms: _85  and  _88
REMARK   24  A    between atoms: _88  and  _89
REMARK   25  A    between atoms: _89  and  _90
REMARK   26  A    between atoms: _93  and  _95
REMARK   27  A    between atoms: _95  and  _96
REMARK   28  A    between atoms: _95  and  _98
REMARK   29  A    between atoms: _98  and  _99
REMARK   30  A    between atoms: _99  and  _100
REMARK   31  A    between atoms: _102  and  _104
REMARK   32  A    between atoms: _104  and  _105
REMARK   33  A    between atoms: _104  and  _107
REMARK   34  A    between atoms: _107  and  _108
REMARK   35  A    between atoms: _111  and  _113
REMARK   36  A    between atoms: _113  and  _114
REMARK   37  A    between atoms: _113  and  _116
REMARK   38  A    between atoms: _116  and  _117
REMARK   39  A    between atoms: _117  and  _118
REMARK   40  A    between atoms: _118  and  ZN_415
REMARK   41  A    between atoms: _121  and  _122
REMARK   42  A    between atoms: _127  and  _129
REMARK   43  A    between atoms: _129  and  _130
REMARK   44  A    between atoms: _129  and  _132
REMARK   45  A    between atoms: _132  and  _133
REMARK   46  A    between atoms: _139  and  _141
REMARK   47  A    between atoms: _141  and  _142
REMARK   48  A    between atoms: _141  and  _144
REMARK   49  A    between atoms: _144  and  _145
REMARK   50  A    between atoms: _145  and  _146
REMARK   51  A    between atoms: _146  and  _147
REMARK   52  A    between atoms: _156  and  _158
REMARK   53  A    between atoms: _158  and  _159
REMARK   54  A    between atoms: _158  and  _161
REMARK   55  A    between atoms: _161  and  _162
REMARK   56  A    between atoms: _167  and  _168
REMARK   57  A    between atoms: _170  and  _172
REMARK   58  A    between atoms: _172  and  _173
REMARK   59  A    between atoms: _172  and  _175
REMARK   60  A    between atoms: _175  and  _176
REMARK   61  A    between atoms: _178  and  _180
REMARK   62  A    between atoms: _180  and  _181
REMARK   63  A    between atoms: _180  and  _183
REMARK   64  A    between atoms: _183  and  _184
REMARK   65  A    between atoms: _189  and  _190
REMARK   66  A    between atoms: _192  and  _194
REMARK   67  A    between atoms: _194  and  _195
REMARK   68  A    between atoms: _194  and  _197
REMARK   69  A    between atoms: _197  and  _198
REMARK   70  A    between atoms: _201  and  _203
REMARK   71  A    between atoms: _203  and  _204
REMARK   72  A    between atoms: _203  and  _206
REMARK   73  A    between atoms: _206  and  _207
REMARK   74  A    between atoms: _210  and  _212
REMARK   75  A    between atoms: _212  and  _213
REMARK   76  A    between atoms: _212  and  _215
REMARK   77  A    between atoms: _215  and  _216
REMARK   78  A    between atoms: _216  and  _217
REMARK   79  A    between atoms: _217  and  _218
REMARK   80  A    between atoms: _227  and  _229
REMARK   81  A    between atoms: _229  and  _230
REMARK   82  A    between atoms: _232  and  _234
REMARK   83  A    between atoms: _234  and  _235
REMARK   84  A    between atoms: _234  and  _237
REMARK   85  A    between atoms: _237  and  _238
REMARK   86  A    between atoms: _241  and  _243
REMARK   87  A    between atoms: _243  and  _244
REMARK   88  A    between atoms: _243  and  _246
REMARK   89  A    between atoms: _246  and  _247
REMARK   90  A    between atoms: _250  and  _252
REMARK   91  A    between atoms: _252  and  _253
REMARK   92  A    between atoms: _252  and  _255
REMARK   93  A    between atoms: _255  and  _256
REMARK   94  A    between atoms: _262  and  _264
REMARK   95  A    between atoms: _264  and  _265
REMARK   96  A    between atoms: _264  and  _267
REMARK   97  A    between atoms: _267  and  _268
REMARK   98  A    between atoms: _268  and  _269
REMARK   99  A    between atoms: _269  and  _270
REMARK  100  A    between atoms: _279  and  _281
REMARK  101  A    between atoms: _281  and  _282
REMARK  102  A    between atoms: _281  and  _284
REMARK  103  A    between atoms: _284  and  _285
REMARK  104  A    between atoms: _295  and  _297
REMARK  105  A    between atoms: _297  and  _298
REMARK  106  A    between atoms: _297  and  _300
REMARK  107  A    between atoms: _300  and  _301
REMARK  108  A    between atoms: _306  and  _308
REMARK  109  A    between atoms: _308  and  _309
REMARK  110  A    between atoms: _308  and  _311
REMARK  111  A    between atoms: _311  and  _312
REMARK  112  A    between atoms: _316  and  ZN_415
REMARK  113  A    between atoms: _317  and  _319
REMARK  114  A    between atoms: _319  and  _320
REMARK  115  A    between atoms: _319  and  _322
REMARK  116  A    between atoms: _322  and  _323
REMARK  117  A    between atoms: _326  and  _328
REMARK  118  A    between atoms: _328  and  _329
REMARK  119  A    between atoms: _331  and  _333
REMARK  120  A    between atoms: _333  and  _334
REMARK  121  A    between atoms: _333  and  _336
REMARK  122  A    between atoms: _336  and  _337
REMARK  123  A    between atoms: _340  and  _342
REMARK  124  A    between atoms: _342  and  _343
REMARK  125  A    between atoms: _342  and  _345
REMARK  126  A    between atoms: _345  and  _346
REMARK  127  A    between atoms: _349  and  _351
REMARK  128  A    between atoms: _351  and  _352
REMARK  129  A    between atoms: _355  and  _357
REMARK  130  A    between atoms: _357  and  _358
REMARK  131  A    between atoms: _357  and  _360
REMARK  132  A    between atoms: _360  and  _361
REMARK  133  A    between atoms: _366  and  _367
REMARK  134  A    between atoms: _369  and  _371
REMARK  135  A    between atoms: _371  and  _372
REMARK  136  A    between atoms: _371  and  _374
REMARK  137  A    between atoms: _374  and  _375
REMARK  138  A    between atoms: _375  and  _376
REMARK  139  A    between atoms: _379  and  _381
REMARK  140  A    between atoms: _381  and  _382
REMARK  141  A    between atoms: _381  and  _384
REMARK  142  A    between atoms: _384  and  _385
REMARK  143  A    between atoms: _385  and  _386
REMARK  144  A    between atoms: _386  and  _387
REMARK  145  A    between atoms: _396  and  _398
REMARK  146  A    between atoms: _398  and  _399
REMARK  147  A    between atoms: _401  and  _403
REMARK  148  A    between atoms: _403  and  _404
REMARK  149  A    between atoms: _403  and  _406
REMARK  150  A    between atoms: _406  and  _407
REMARK  151  A    between atoms: _410  and  _412
REMARK  152  A    between atoms: _412  and  _413
REMARK                            x       y       z     vdW  Elec       q    Type
REMARK                         _______ _______ _______ _____ _____    ______ ____
ROOT
ATOM      1  O   HOH     1      23.362  62.648  13.774  0.00  0.00    +0.000 OA
ENDROOT
TORSDOF 0
REMARK  Name = ../refined-set-2016/3ddf/3ddf_pocket.pdb
REMARK  152 active torsions:
REMARK  status: ('A' for Active; 'I' for Inactive)
REMARK    1  A    between atoms: _1  and  _3
REMARK    2  A    between atoms: _14  and  _17
REMARK    3  A    between atoms: _17  and  _18
REMARK    4  A    between atoms: _25  and  _26
REMARK    5  A    between atoms: _33  and  _34
REMARK    6  A    between atoms: _39  and  _41
REMARK    7  A    between atoms: _41  and  _42
REMARK    8  A    between atoms: _44  and  _46
REMARK    9  A    between atoms: _46  and  _47
REMARK   10  A    between atoms: _46  and  _49
REMARK   11  A    between atoms: _49  and  _50
REMARK   12  A    between atoms: _60  and  _62
REMARK   13  A    between atoms: _62  and  _63
REMARK   14  A    between atoms: _62  and  _65
REMARK   15  A    between atoms: _65  and  _66
REMARK   16  A    between atoms: _69  and  _71
REMARK   17  A    between atoms: _71  and  _72
REMARK   18  A    between atoms: _71  and  _74
REMARK   19  A    between atoms: _74  and  _75
REMARK   20  A    between atoms: _80  and  _81
REMARK   21  A    between atoms: _83  and  _85
REMARK   22  A    between atoms: _85  and  _86
REMARK   23  A    between atoms: _85  and  _88
REMARK   24  A    between atoms: _88  and  _89
REMARK   25  A    between atoms: _89  and  _90
REMARK   26  A    between atoms: _93  and  _95
REMARK   27  A    between atoms: _95  and  _96
REMARK   28  A    between atoms: _95  and  _98
REMARK   29  A    between atoms: _98  and  _99
REMARK   30  A    between atoms: _99  and  _100
REMARK   31  A    between atoms: _102  and  _104
REMARK   32  A    between atoms: _104  and  _105
REMARK   33  A    between atoms: _104  and  _107
REMARK   34  A    between atoms: _107  and  _108
REMARK   35  A    between atoms: _111  and  _113
REMARK   36  A    between atoms: _113  and  _114
REMARK   37  A    between atoms: _113  and  _116
REMARK   38  A    between atoms: _116  and  _117
REMARK   39  A    between atoms: _117  and  _118
REMARK   40  A    between atoms: _118  and  ZN_415
REMARK   41  A    between atoms: _121  and  _122
REMARK   42  A    between atoms: _127  and  _129
REMARK   43  A    between atoms: _129  and  _130
REMARK   44  A    between atoms: _129  and  _132
REMARK   45  A    between atoms: _132  and  _133
REMARK   46  A    between atoms: _139  and  _141
REMARK   47  A    between atoms: _141  and  _142
REMARK   48  A    between atoms: _141  and  _144
REMARK   49  A    between atoms: _144  and  _145
REMARK   50  A    between atoms: _145  and  _146
REMARK   51  A    between atoms: _146  and  _147
REMARK   52  A    between atoms: _156  and  _158
REMARK   53  A    between atoms: _158  and  _159
REMARK   54  A    between atoms: _158  and  _161
REMARK   55  A    between atoms: _161  and  _162
REMARK   56  A    between atoms: _167  and  _168
REMARK   57  A    between atoms: _170  and  _172
REMARK   58  A    between atoms: _172  and  _173
REMARK   59  A    between atoms: _172  and  _175
REMARK   60  A    between atoms: _175  and  _176
REMARK   61  A    between atoms: _178  and  _180
REMARK   62  A    between atoms: _180  and  _181
REMARK   63  A    between atoms: _180  and  _183
REMARK   64  A    between atoms: _183  and  _184
REMARK   65  A    between atoms: _189  and  _190
REMARK   66  A    between atoms: _192  and  _194
REMARK   67  A    between atoms: _194  and  _195
REMARK   68  A    between atoms: _194  and  _197
REMARK   69  A    between atoms: _197  and  _198
REMARK   70  A    between atoms: _201  and  _203
REMARK   71  A    between atoms: _203  and  _204
REMARK   72  A    between atoms: _203  and  _206
REMARK   73  A    between atoms: _206  and  _207
REMARK   74  A    between atoms: _210  and  _212
REMARK   75  A    between atoms: _212  and  _213
REMARK   76  A    between atoms: _212  and  _215
REMARK   77  A    between atoms: _215  and  _216
REMARK   78  A    between atoms: _216  and  _217
REMARK   79  A    between atoms: _217  and  _218
REMARK   80  A    between atoms: _227  and  _229
REMARK   81  A    between atoms: _229  and  _230
REMARK   82  A    between atoms: _232  and  _234
REMARK   83  A    between atoms: _234  and  _235
REMARK   84  A    between atoms: _234  and  _237
REMARK   85  A    between atoms: _237  and  _238
REMARK   86  A    between atoms: _241  and  _243
REMARK   87  A    between atoms: _243  and  _244
REMARK   88  A    between atoms: _243  and  _246
REMARK   89  A    between atoms: _246  and  _247
REMARK   90  A    between atoms: _250  and  _252
REMARK   91  A    between atoms: _252  and  _253
REMARK   92  A    between atoms: _252  and  _255
REMARK   93  A    between atoms: _255  and  _256
REMARK   94  A    between atoms: _262  and  _264
REMARK   95  A    between atoms: _264  and  _265
REMARK   96  A    between atoms: _264  and  _267
REMARK   97  A    between atoms: _267  and  _268
REMARK   98  A    between atoms: _268  and  _269
REMARK   99  A    between atoms: _269  and  _270
REMARK  100  A    between atoms: _279  and  _281
REMARK  101  A    between atoms: _281  and  _282
REMARK  102  A    between atoms: _281  and  _284
REMARK  103  A    between atoms: _284  and  _285
REMARK  104  A    between atoms: _295  and  _297
REMARK  105  A    between atoms: _297  and  _298
REMARK  106  A    between atoms: _297  and  _300
REMARK  107  A    between atoms: _300  and  _301
REMARK  108  A    between atoms: _306  and  _308
REMARK  109  A    between atoms: _308  and  _309
REMARK  110  A    between atoms: _308  and  _311
REMARK  111  A    between atoms: _311  and  _312
REMARK  112  A    between atoms: _316  and  ZN_415
REMARK  113  A    between atoms: _317  and  _319
REMARK  114  A    between atoms: _319  and  _320
REMARK  115  A    between atoms: _319  and  _322
REMARK  116  A    between atoms: _322  and  _323
REMARK  117  A    between atoms: _326  and  _328
REMARK  118  A    between atoms: _328  and  _329
REMARK  119  A    between atoms: _331  and  _333
REMARK  120  A    between atoms: _333  and  _334
REMARK  121  A    between atoms: _333  and  _336
REMARK  122  A    between atoms: _336  and  _337
REMARK  123  A    between atoms: _340  and  _342
REMARK  124  A    between atoms: _342  and  _343
REMARK  125  A    between atoms: _342  and  _345
REMARK  126  A    between atoms: _345  and  _346
REMARK  127  A    between atoms: _349  and  _351
REMARK  128  A    between atoms: _351  and  _352
REMARK  129  A    between atoms: _355  and  _357
REMARK  130  A    between atoms: _357  and  _358
REMARK  131  A    between atoms: _357  and  _360
REMARK  132  A    between atoms: _360  and  _361
REMARK  133  A    between atoms: _366  and  _367
REMARK  134  A    between atoms: _369  and  _371
REMARK  135  A    between atoms: _371  and  _372
REMARK  136  A    between atoms: _371  and  _374
REMARK  137  A    between atoms: _374  and  _375
REMARK  138  A    between atoms: _375  and  _376
REMARK  139  A    between atoms: _379  and  _381
REMARK  140  A    between atoms: _381  and  _382
REMARK  141  A    between atoms: _381  and  _384
REMARK  142  A    between atoms: _384  and  _385
REMARK  143  A    between atoms: _385  and  _386
REMARK  144  A    between atoms: _386  and  _387
REMARK  145  A    between atoms: _396  and  _398
REMARK  146  A    between atoms: _398  and  _399
REMARK  147  A    between atoms: _401  and  _403
REMARK  148  A    between atoms: _403  and  _404
REMARK  149  A    between atoms: _403  and  _406
REMARK  150  A    between atoms: _406  and  _407
REMARK  151  A    between atoms: _410  and  _412
REMARK  152  A    between atoms: _412  and  _413
REMARK                            x       y       z     vdW  Elec       q    Type
REMARK                         _______ _______ _______ _____ _____    ______ ____
ROOT
ATOM      1  O   HOH     1      22.722  62.755  15.977  0.00  0.00    +0.000 OA
ENDROOT
TORSDOF 0
REMARK  Name = ../refined-set-2016/3ddf/3ddf_pocket.pdb
REMARK  152 active torsions:
REMARK  status: ('A' for Active; 'I' for Inactive)
REMARK    1  A    between atoms: _1  and  _3
REMARK    2  A    between atoms: _14  and  _17
REMARK    3  A    between atoms: _17  and  _18
REMARK    4  A    between atoms: _25  and  _26
REMARK    5  A    between atoms: _33  and  _34
REMARK    6  A    between atoms: _39  and  _41
REMARK    7  A    between atoms: _41  and  _42
REMARK    8  A    between atoms: _44  and  _46
REMARK    9  A    between atoms: _46  and  _47
REMARK   10  A    between atoms: _46  and  _49
REMARK   11  A    between atoms: _49  and  _50
REMARK   12  A    between atoms: _60  and  _62
REMARK   13  A    between atoms: _62  and  _63
REMARK   14  A    between atoms: _62  and  _65
REMARK   15  A    between atoms: _65  and  _66
REMARK   16  A    between atoms: _69  and  _71
REMARK   17  A    between atoms: _71  and  _72
REMARK   18  A    between atoms: _71  and  _74
REMARK   19  A    between atoms: _74  and  _75
REMARK   20  A    between atoms: _80  and  _81
REMARK   21  A    between atoms: _83  and  _85
REMARK   22  A    between atoms: _85  and  _86
REMARK   23  A    between atoms: _85  and  _88
REMARK   24  A    between atoms: _88  and  _89
REMARK   25  A    between atoms: _89  and  _90
REMARK   26  A    between atoms: _93  and  _95
REMARK   27  A    between atoms: _95  and  _96
REMARK   28  A    between atoms: _95  and  _98
REMARK   29  A    between atoms: _98  and  _99
REMARK   30  A    between atoms: _99  and  _100
REMARK   31  A    between atoms: _102  and  _104
REMARK   32  A    between atoms: _104  and  _105
REMARK   33  A    between atoms: _104  and  _107
REMARK   34  A    between atoms: _107  and  _108
REMARK   35  A    between atoms: _111  and  _113
REMARK   36  A    between atoms: _113  and  _114
REMARK   37  A    between atoms: _113  and  _116
REMARK   38  A    between atoms: _116  and  _117
REMARK   39  A    between atoms: _117  and  _118
REMARK   40  A    between atoms: _118  and  ZN_415
REMARK   41  A    between atoms: _121  and  _122
REMARK   42  A    between atoms: _127  and  _129
REMARK   43  A    between atoms: _129  and  _130
REMARK   44  A    between atoms: _129  and  _132
REMARK   45  A    between atoms: _132  and  _133
REMARK   46  A    between atoms: _139  and  _141
REMARK   47  A    between atoms: _141  and  _142
REMARK   48  A    between atoms: _141  and  _144
REMARK   49  A    between atoms: _144  and  _145
REMARK   50  A    between atoms: _145  and  _146
REMARK   51  A    between atoms: _146  and  _147
REMARK   52  A    between atoms: _156  and  _158
REMARK   53  A    between atoms: _158  and  _159
REMARK   54  A    between atoms: _158  and  _161
REMARK   55  A    between atoms: _161  and  _162
REMARK   56  A    between atoms: _167  and  _168
REMARK   57  A    between atoms: _170  and  _172
REMARK   58  A    between atoms: _172  and  _173
REMARK   59  A    between atoms: _172  and  _175
REMARK   60  A    between atoms: _175  and  _176
REMARK   61  A    between atoms: _178  and  _180
REMARK   62  A    between atoms: _180  and  _181
REMARK   63  A    between atoms: _180  and  _183
REMARK   64  A    between atoms: _183  and  _184
REMARK   65  A    between atoms: _189  and  _190
REMARK   66  A    between atoms: _192  and  _194
REMARK   67  A    between atoms: _194  and  _195
REMARK   68  A    between atoms: _194  and  _197
REMARK   69  A    between atoms: _197  and  _198
REMARK   70  A    between atoms: _201  and  _203
REMARK   71  A    between atoms: _203  and  _204
REMARK   72  A    between atoms: _203  and  _206
REMARK   73  A    between atoms: _206  and  _207
REMARK   74  A    between atoms: _210  and  _212
REMARK   75  A    between atoms: _212  and  _213
REMARK   76  A    between atoms: _212  and  _215
REMARK   77  A    between atoms: _215  and  _216
REMARK   78  A    between atoms: _216  and  _217
REMARK   79  A    between atoms: _217  and  _218
REMARK   80  A    between atoms: _227  and  _229
REMARK   81  A    between atoms: _229  and  _230
REMARK   82  A    between atoms: _232  and  _234
REMARK   83  A    between atoms: _234  and  _235
REMARK   84  A    between atoms: _234  and  _237
REMARK   85  A    between atoms: _237  and  _238
REMARK   86  A    between atoms: _241  and  _243
REMARK   87  A    between atoms: _243  and  _244
REMARK   88  A    between atoms: _243  and  _246
REMARK   89  A    between atoms: _246  and  _247
REMARK   90  A    between atoms: _250  and  _252
REMARK   91  A    between atoms: _252  and  _253
REMARK   92  A    between atoms: _252  and  _255
REMARK   93  A    between atoms: _255  and  _256
REMARK   94  A    between atoms: _262  and  _264
REMARK   95  A    between atoms: _264  and  _265
REMARK   96  A    between atoms: _264  and  _267
REMARK   97  A    between atoms: _267  and  _268
REMARK   98  A    between atoms: _268  and  _269
REMARK   99  A    between atoms: _269  and  _270
REMARK  100  A    between atoms: _279  and  _281
REMARK  101  A    between atoms: _281  and  _282
REMARK  102  A    between atoms: _281  and  _284
REMARK  103  A    between atoms: _284  and  _285
REMARK  104  A    between atoms: _295  and  _297
REMARK  105  A    between atoms: _297  and  _298
REMARK  106  A    between atoms: _297  and  _300
REMARK  107  A    between atoms: _300  and  _301
REMARK  108  A    between atoms: _306  and  _308
REMARK  109  A    between atoms: _308  and  _309
REMARK  110  A    between atoms: _308  and  _311
REMARK  111  A    between atoms: _311  and  _312
REMARK  112  A    between atoms: _316  and  ZN_415
REMARK  113  A    between atoms: _317  and  _319
REMARK  114  A    between atoms: _319  and  _320
REMARK  115  A    between atoms: _319  and  _322
REMARK  116  A    between atoms: _322  and  _323
REMARK  117  A    between atoms: _326  and  _328
REMARK  118  A    between atoms: _328  and  _329
REMARK  119  A    between atoms: _331  and  _333
REMARK  120  A    between atoms: _333  and  _334
REMARK  121  A    between atoms: _333  and  _336
REMARK  122  A    between atoms: _336  and  _337
REMARK  123  A    between atoms: _340  and  _342
REMARK  124  A    between atoms: _342  and  _343
REMARK  125  A    between atoms: _342  and  _345
REMARK  126  A    between atoms: _345  and  _346
REMARK  127  A    between atoms: _349  and  _351
REMARK  128  A    between atoms: _351  and  _352
REMARK  129  A    between atoms: _355  and  _357
REMARK  130  A    between atoms: _357  and  _358
REMARK  131  A    between atoms: _357  and  _360
REMARK  132  A    between atoms: _360  and  _361
REMARK  133  A    between atoms: _366  and  _367
REMARK  134  A    between atoms: _369  and  _371
REMARK  135  A    between atoms: _371  and  _372
REMARK  136  A    between atoms: _371  and  _374
REMARK  137  A    between atoms: _374  and  _375
REMARK  138  A    between atoms: _375  and  _376
REMARK  139  A    between atoms: _379  and  _381
REMARK  140  A    between atoms: _381  and  _382
REMARK  141  A    between atoms: _381  and  _384
REMARK  142  A    between atoms: _384  and  _385
REMARK  143  A    between atoms: _385  and  _386
REMARK  144  A    between atoms: _386  and  _387
REMARK  145  A    between atoms: _396  and  _398
REMARK  146  A    between atoms: _398  and  _399
REMARK  147  A    between atoms: _401  and  _403
REMARK  148  A    between atoms: _403  and  _404
REMARK  149  A    between atoms: _403  and  _406
REMARK  150  A    between atoms: _406  and  _407
REMARK  151  A    between atoms: _410  and  _412
REMARK  152  A    between atoms: _412  and  _413
REMARK                            x       y       z     vdW  Elec       q    Type
REMARK                         _______ _______ _______ _____ _____    ______ ____
ROOT
ATOM      1  O   HOH     1      23.192  65.659  18.321  0.00  0.00    +0.000 OA
ENDROOT
TORSDOF 0
REMARK  Name = ../refined-set-2016/3ddf/3ddf_pocket.pdb
REMARK  152 active torsions:
REMARK  status: ('A' for Active; 'I' for Inactive)
REMARK    1  A    between atoms: _1  and  _3
REMARK    2  A    between atoms: _14  and  _17
REMARK    3  A    between atoms: _17  and  _18
REMARK    4  A    between atoms: _25  and  _26
REMARK    5  A    between atoms: _33  and  _34
REMARK    6  A    between atoms: _39  and  _41
REMARK    7  A    between atoms: _41  and  _42
REMARK    8  A    between atoms: _44  and  _46
REMARK    9  A    between atoms: _46  and  _47
REMARK   10  A    between atoms: _46  and  _49
REMARK   11  A    between atoms: _49  and  _50
REMARK   12  A    between atoms: _60  and  _62
REMARK   13  A    between atoms: _62  and  _63
REMARK   14  A    between atoms: _62  and  _65
REMARK   15  A    between atoms: _65  and  _66
REMARK   16  A    between atoms: _69  and  _71
REMARK   17  A    between atoms: _71  and  _72
REMARK   18  A    between atoms: _71  and  _74
REMARK   19  A    between atoms: _74  and  _75
REMARK   20  A    between atoms: _80  and  _81
REMARK   21  A    between atoms: _83  and  _85
REMARK   22  A    between atoms: _85  and  _86
REMARK   23  A    between atoms: _85  and  _88
REMARK   24  A    between atoms: _88  and  _89
REMARK   25  A    between atoms: _89  and  _90
REMARK   26  A    between atoms: _93  and  _95
REMARK   27  A    between atoms: _95  and  _96
REMARK   28  A    between atoms: _95  and  _98
REMARK   29  A    between atoms: _98  and  _99
REMARK   30  A    between atoms: _99  and  _100
REMARK   31  A    between atoms: _102  and  _104
REMARK   32  A    between atoms: _104  and  _105
REMARK   33  A    between atoms: _104  and  _107
REMARK   34  A    between atoms: _107  and  _108
REMARK   35  A    between atoms: _111  and  _113
REMARK   36  A    between atoms: _113  and  _114
REMARK   37  A    between atoms: _113  and  _116
REMARK   38  A    between atoms: _116  and  _117
REMARK   39  A    between atoms: _117  and  _118
REMARK   40  A    between atoms: _118  and  ZN_415
REMARK   41  A    between atoms: _121  and  _122
REMARK   42  A    between atoms: _127  and  _129
REMARK   43  A    between atoms: _129  and  _130
REMARK   44  A    between atoms: _129  and  _132
REMARK   45  A    between atoms: _132  and  _133
REMARK   46  A    between atoms: _139  and  _141
REMARK   47  A    between atoms: _141  and  _142
REMARK   48  A    between atoms: _141  and  _144
REMARK   49  A    between atoms: _144  and  _145
REMARK   50  A    between atoms: _145  and  _146
REMARK   51  A    between atoms: _146  and  _147
REMARK   52  A    between atoms: _156  and  _158
REMARK   53  A    between atoms: _158  and  _159
REMARK   54  A    between atoms: _158  and  _161
REMARK   55  A    between atoms: _161  and  _162
REMARK   56  A    between atoms: _167  and  _168
REMARK   57  A    between atoms: _170  and  _172
REMARK   58  A    between atoms: _172  and  _173
REMARK   59  A    between atoms: _172  and  _175
REMARK   60  A    between atoms: _175  and  _176
REMARK   61  A    between atoms: _178  and  _180
REMARK   62  A    between atoms: _180  and  _181
REMARK   63  A    between atoms: _180  and  _183
REMARK   64  A    between atoms: _183  and  _184
REMARK   65  A    between atoms: _189  and  _190
REMARK   66  A    between atoms: _192  and  _194
REMARK   67  A    between atoms: _194  and  _195
REMARK   68  A    between atoms: _194  and  _197
REMARK   69  A    between atoms: _197  and  _198
REMARK   70  A    between atoms: _201  and  _203
REMARK   71  A    between atoms: _203  and  _204
REMARK   72  A    between atoms: _203  and  _206
REMARK   73  A    between atoms: _206  and  _207
REMARK   74  A    between atoms: _210  and  _212
REMARK   75  A    between atoms: _212  and  _213
REMARK   76  A    between atoms: _212  and  _215
REMARK   77  A    between atoms: _215  and  _216
REMARK   78  A    between atoms: _216  and  _217
REMARK   79  A    between atoms: _217  and  _218
REMARK   80  A    between atoms: _227  and  _229
REMARK   81  A    between atoms: _229  and  _230
REMARK   82  A    between atoms: _232  and  _234
REMARK   83  A    between atoms: _234  and  _235
REMARK   84  A    between atoms: _234  and  _237
REMARK   85  A    between atoms: _237  and  _238
REMARK   86  A    between atoms: _241  and  _243
REMARK   87  A    between atoms: _243  and  _244
REMARK   88  A    between atoms: _243  and  _246
REMARK   89  A    between atoms: _246  and  _247
REMARK   90  A    between atoms: _250  and  _252
REMARK   91  A    between atoms: _252  and  _253
REMARK   92  A    between atoms: _252  and  _255
REMARK   93  A    between atoms: _255  and  _256
REMARK   94  A    between atoms: _262  and  _264
REMARK   95  A    between atoms: _264  and  _265
REMARK   96  A    between atoms: _264  and  _267
REMARK   97  A    between atoms: _267  and  _268
REMARK   98  A    between atoms: _268  and  _269
REMARK   99  A    between atoms: _269  and  _270
REMARK  100  A    between atoms: _279  and  _281
REMARK  101  A    between atoms: _281  and  _282
REMARK  102  A    between atoms: _281  and  _284
REMARK  103  A    between atoms: _284  and  _285
REMARK  104  A    between atoms: _295  and  _297
REMARK  105  A    between atoms: _297  and  _298
REMARK  106  A    between atoms: _297  and  _300
REMARK  107  A    between atoms: _300  and  _301
REMARK  108  A    between atoms: _306  and  _308
REMARK  109  A    between atoms: _308  and  _309
REMARK  110  A    between atoms: _308  and  _311
REMARK  111  A    between atoms: _311  and  _312
REMARK  112  A    between atoms: _316  and  ZN_415
REMARK  113  A    between atoms: _317  and  _319
REMARK  114  A    between atoms: _319  and  _320
REMARK  115  A    between atoms: _319  and  _322
REMARK  116  A    between atoms: _322  and  _323
REMARK  117  A    between atoms: _326  and  _328
REMARK  118  A    between atoms: _328  and  _329
REMARK  119  A    between atoms: _331  and  _333
REMARK  120  A    between atoms: _333  and  _334
REMARK  121  A    between atoms: _333  and  _336
REMARK  122  A    between atoms: _336  and  _337
REMARK  123  A    between atoms: _340  and  _342
REMARK  124  A    between atoms: _342  and  _343
REMARK  125  A    between atoms: _342  and  _345
REMARK  126  A    between atoms: _345  and  _346
REMARK  127  A    between atoms: _349  and  _351
REMARK  128  A    between atoms: _351  and  _352
REMARK  129  A    between atoms: _355  and  _357
REMARK  130  A    between atoms: _357  and  _358
REMARK  131  A    between atoms: _357  and  _360
REMARK  132  A    between atoms: _360  and  _361
REMARK  133  A    between atoms: _366  and  _367
REMARK  134  A    between atoms: _369  and  _371
REMARK  135  A    between atoms: _371  and  _372
REMARK  136  A    between atoms: _371  and  _374
REMARK  137  A    between atoms: _374  and  _375
REMARK  138  A    between atoms: _375  and  _376
REMARK  139  A    between atoms: _379  and  _381
REMARK  140  A    between atoms: _381  and  _382
REMARK  141  A    between atoms: _381  and  _384
REMARK  142  A    between atoms: _384  and  _385
REMARK  143  A    between atoms: _385  and  _386
REMARK  144  A    between atoms: _386  and  _387
REMARK  145  A    between atoms: _396  and  _398
REMARK  146  A    between atoms: _398  and  _399
REMARK  147  A    between atoms: _401  and  _403
REMARK  148  A    between atoms: _403  and  _404
REMARK  149  A    between atoms: _403  and  _406
REMARK  150  A    between atoms: _406  and  _407
REMARK  151  A    between atoms: _410  and  _412
REMARK  152  A    between atoms: _412  and  _413
REMARK                            x       y       z     vdW  Elec       q    Type
REMARK                         _______ _______ _______ _____ _____    ______ ____
ROOT
ATOM      1  O   HOH     1      25.796  66.340  17.523  0.00  0.00    +0.000 OA
ENDROOT
TORSDOF 0
REMARK  Name = ../refined-set-2016/3ddf/3ddf_pocket.pdb
REMARK  152 active torsions:
REMARK  status: ('A' for Active; 'I' for Inactive)
REMARK    1  A    between atoms: _1  and  _3
REMARK    2  A    between atoms: _14  and  _17
REMARK    3  A    between atoms: _17  and  _18
REMARK    4  A    between atoms: _25  and  _26
REMARK    5  A    between atoms: _33  and  _34
REMARK    6  A    between atoms: _39  and  _41
REMARK    7  A    between atoms: _41  and  _42
REMARK    8  A    between atoms: _44  and  _46
REMARK    9  A    between atoms: _46  and  _47
REMARK   10  A    between atoms: _46  and  _49
REMARK   11  A    between atoms: _49  and  _50
REMARK   12  A    between atoms: _60  and  _62
REMARK   13  A    between atoms: _62  and  _63
REMARK   14  A    between atoms: _62  and  _65
REMARK   15  A    between atoms: _65  and  _66
REMARK   16  A    between atoms: _69  and  _71
REMARK   17  A    between atoms: _71  and  _72
REMARK   18  A    between atoms: _71  and  _74
REMARK   19  A    between atoms: _74  and  _75
REMARK   20  A    between atoms: _80  and  _81
REMARK   21  A    between atoms: _83  and  _85
REMARK   22  A    between atoms: _85  and  _86
REMARK   23  A    between atoms: _85  and  _88
REMARK   24  A    between atoms: _88  and  _89
REMARK   25  A    between atoms: _89  and  _90
REMARK   26  A    between atoms: _93  and  _95
REMARK   27  A    between atoms: _95  and  _96
REMARK   28  A    between atoms: _95  and  _98
REMARK   29  A    between atoms: _98  and  _99
REMARK   30  A    between atoms: _99  and  _100
REMARK   31  A    between atoms: _102  and  _104
REMARK   32  A    between atoms: _104  and  _105
REMARK   33  A    between atoms: _104  and  _107
REMARK   34  A    between atoms: _107  and  _108
REMARK   35  A    between atoms: _111  and  _113
REMARK   36  A    between atoms: _113  and  _114
REMARK   37  A    between atoms: _113  and  _116
REMARK   38  A    between atoms: _116  and  _117
REMARK   39  A    between atoms: _117  and  _118
REMARK   40  A    between atoms: _118  and  ZN_415
REMARK   41  A    between atoms: _121  and  _122
REMARK   42  A    between atoms: _127  and  _129
REMARK   43  A    between atoms: _129  and  _130
REMARK   44  A    between atoms: _129  and  _132
REMARK   45  A    between atoms: _132  and  _133
REMARK   46  A    between atoms: _139  and  _141
REMARK   47  A    between atoms: _141  and  _142
REMARK   48  A    between atoms: _141  and  _144
REMARK   49  A    between atoms: _144  and  _145
REMARK   50  A    between atoms: _145  and  _146
REMARK   51  A    between atoms: _146  and  _147
REMARK   52  A    between atoms: _156  and  _158
REMARK   53  A    between atoms: _158  and  _159
REMARK   54  A    between atoms: _158  and  _161
REMARK   55  A    between atoms: _161  and  _162
REMARK   56  A    between atoms: _167  and  _168
REMARK   57  A    between atoms: _170  and  _172
REMARK   58  A    between atoms: _172  and  _173
REMARK   59  A    between atoms: _172  and  _175
REMARK   60  A    between atoms: _175  and  _176
REMARK   61  A    between atoms: _178  and  _180
REMARK   62  A    between atoms: _180  and  _181
REMARK   63  A    between atoms: _180  and  _183
REMARK   64  A    between atoms: _183  and  _184
REMARK   65  A    between atoms: _189  and  _190
REMARK   66  A    between atoms: _192  and  _194
REMARK   67  A    between atoms: _194  and  _195
REMARK   68  A    between atoms: _194  and  _197
REMARK   69  A    between atoms: _197  and  _198
REMARK   70  A    between atoms: _201  and  _203
REMARK   71  A    between atoms: _203  and  _204
REMARK   72  A    between atoms: _203  and  _206
REMARK   73  A    between atoms: _206  and  _207
REMARK   74  A    between atoms: _210  and  _212
REMARK   75  A    between atoms: _212  and  _213
REMARK   76  A    between atoms: _212  and  _215
REMARK   77  A    between atoms: _215  and  _216
REMARK   78  A    between atoms: _216  and  _217
REMARK   79  A    between atoms: _217  and  _218
REMARK   80  A    between atoms: _227  and  _229
REMARK   81  A    between atoms: _229  and  _230
REMARK   82  A    between atoms: _232  and  _234
REMARK   83  A    between atoms: _234  and  _235
REMARK   84  A    between atoms: _234  and  _237
REMARK   85  A    between atoms: _237  and  _238
REMARK   86  A    between atoms: _241  and  _243
REMARK   87  A    between atoms: _243  and  _244
REMARK   88  A    between atoms: _243  and  _246
REMARK   89  A    between atoms: _246  and  _247
REMARK   90  A    between atoms: _250  and  _252
REMARK   91  A    between atoms: _252  and  _253
REMARK   92  A    between atoms: _252  and  _255
REMARK   93  A    between atoms: _255  and  _256
REMARK   94  A    between atoms: _262  and  _264
REMARK   95  A    between atoms: _264  and  _265
REMARK   96  A    between atoms: _264  and  _267
REMARK   97  A    between atoms: _267  and  _268
REMARK   98  A    between atoms: _268  and  _269
REMARK   99  A    between atoms: _269  and  _270
REMARK  100  A    between atoms: _279  and  _281
REMARK  101  A    between atoms: _281  and  _282
REMARK  102  A    between atoms: _281  and  _284
REMARK  103  A    between atoms: _284  and  _285
REMARK  104  A    between atoms: _295  and  _297
REMARK  105  A    between atoms: _297  and  _298
REMARK  106  A    between atoms: _297  and  _300
REMARK  107  A    between atoms: _300  and  _301
REMARK  108  A    between atoms: _306  and  _308
REMARK  109  A    between atoms: _308  and  _309
REMARK  110  A    between atoms: _308  and  _311
REMARK  111  A    between atoms: _311  and  _312
REMARK  112  A    between atoms: _316  and  ZN_415
REMARK  113  A    between atoms: _317  and  _319
REMARK  114  A    between atoms: _319  and  _320
REMARK  115  A    between atoms: _319  and  _322
REMARK  116  A    between atoms: _322  and  _323
REMARK  117  A    between atoms: _326  and  _328
REMARK  118  A    between atoms: _328  and  _329
REMARK  119  A    between atoms: _331  and  _333
REMARK  120  A    between atoms: _333  and  _334
REMARK  121  A    between atoms: _333  and  _336
REMARK  122  A    between atoms: _336  and  _337
REMARK  123  A    between atoms: _340  and  _342
REMARK  124  A    between atoms: _342  and  _343
REMARK  125  A    between atoms: _342  and  _345
REMARK  126  A    between atoms: _345  and  _346
REMARK  127  A    between atoms: _349  and  _351
REMARK  128  A    between atoms: _351  and  _352
REMARK  129  A    between atoms: _355  and  _357
REMARK  130  A    between atoms: _357  and  _358
REMARK  131  A    between atoms: _357  and  _360
REMARK  132  A    between atoms: _360  and  _361
REMARK  133  A    between atoms: _366  and  _367
REMARK  134  A    between atoms: _369  and  _371
REMARK  135  A    between atoms: _371  and  _372
REMARK  136  A    between atoms: _371  and  _374
REMARK  137  A    between atoms: _374  and  _375
REMARK  138  A    between atoms: _375  and  _376
REMARK  139  A    between atoms: _379  and  _381
REMARK  140  A    between atoms: _381  and  _382
REMARK  141  A    between atoms: _381  and  _384
REMARK  142  A    between atoms: _384  and  _385
REMARK  143  A    between atoms: _385  and  _386
REMARK  144  A    between atoms: _386  and  _387
REMARK  145  A    between atoms: _396  and  _398
REMARK  146  A    between atoms: _398  and  _399
REMARK  147  A    between atoms: _401  and  _403
REMARK  148  A    between atoms: _403  and  _404
REMARK  149  A    between atoms: _403  and  _406
REMARK  150  A    between atoms: _406  and  _407
REMARK  151  A    between atoms: _410  and  _412
REMARK  152  A    between atoms: _412  and  _413
REMARK                            x       y       z     vdW  Elec       q    Type
REMARK                         _______ _______ _______ _____ _____    ______ ____
ROOT
ATOM      1  O   HOH     1      26.617  67.266  19.731  0.00  0.00    +0.000 OA
ENDROOT
TORSDOF 0
REMARK  Name = ../refined-set-2016/3ddf/3ddf_pocket.pdb
REMARK  152 active torsions:
REMARK  status: ('A' for Active; 'I' for Inactive)
REMARK    1  A    between atoms: _1  and  _3
REMARK    2  A    between atoms: _14  and  _17
REMARK    3  A    between atoms: _17  and  _18
REMARK    4  A    between atoms: _25  and  _26
REMARK    5  A    between atoms: _33  and  _34
REMARK    6  A    between atoms: _39  and  _41
REMARK    7  A    between atoms: _41  and  _42
REMARK    8  A    between atoms: _44  and  _46
REMARK    9  A    between atoms: _46  and  _47
REMARK   10  A    between atoms: _46  and  _49
REMARK   11  A    between atoms: _49  and  _50
REMARK   12  A    between atoms: _60  and  _62
REMARK   13  A    between atoms: _62  and  _63
REMARK   14  A    between atoms: _62  and  _65
REMARK   15  A    between atoms: _65  and  _66
REMARK   16  A    between atoms: _69  and  _71
REMARK   17  A    between atoms: _71  and  _72
REMARK   18  A    between atoms: _71  and  _74
REMARK   19  A    between atoms: _74  and  _75
REMARK   20  A    between atoms: _80  and  _81
REMARK   21  A    between atoms: _83  and  _85
REMARK   22  A    between atoms: _85  and  _86
REMARK   23  A    between atoms: _85  and  _88
REMARK   24  A    between atoms: _88  and  _89
REMARK   25  A    between atoms: _89  and  _90
REMARK   26  A    between atoms: _93  and  _95
REMARK   27  A    between atoms: _95  and  _96
REMARK   28  A    between atoms: _95  and  _98
REMARK   29  A    between atoms: _98  and  _99
REMARK   30  A    between atoms: _99  and  _100
REMARK   31  A    between atoms: _102  and  _104
REMARK   32  A    between atoms: _104  and  _105
REMARK   33  A    between atoms: _104  and  _107
REMARK   34  A    between atoms: _107  and  _108
REMARK   35  A    between atoms: _111  and  _113
REMARK   36  A    between atoms: _113  and  _114
REMARK   37  A    between atoms: _113  and  _116
REMARK   38  A    between atoms: _116  and  _117
REMARK   39  A    between atoms: _117  and  _118
REMARK   40  A    between atoms: _118  and  ZN_415
REMARK   41  A    between atoms: _121  and  _122
REMARK   42  A    between atoms: _127  and  _129
REMARK   43  A    between atoms: _129  and  _130
REMARK   44  A    between atoms: _129  and  _132
REMARK   45  A    between atoms: _132  and  _133
REMARK   46  A    between atoms: _139  and  _141
REMARK   47  A    between atoms: _141  and  _142
REMARK   48  A    between atoms: _141  and  _144
REMARK   49  A    between atoms: _144  and  _145
REMARK   50  A    between atoms: _145  and  _146
REMARK   51  A    between atoms: _146  and  _147
REMARK   52  A    between atoms: _156  and  _158
REMARK   53  A    between atoms: _158  and  _159
REMARK   54  A    between atoms: _158  and  _161
REMARK   55  A    between atoms: _161  and  _162
REMARK   56  A    between atoms: _167  and  _168
REMARK   57  A    between atoms: _170  and  _172
REMARK   58  A    between atoms: _172  and  _173
REMARK   59  A    between atoms: _172  and  _175
REMARK   60  A    between atoms: _175  and  _176
REMARK   61  A    between atoms: _178  and  _180
REMARK   62  A    between atoms: _180  and  _181
REMARK   63  A    between atoms: _180  and  _183
REMARK   64  A    between atoms: _183  and  _184
REMARK   65  A    between atoms: _189  and  _190
REMARK   66  A    between atoms: _192  and  _194
REMARK   67  A    between atoms: _194  and  _195
REMARK   68  A    between atoms: _194  and  _197
REMARK   69  A    between atoms: _197  and  _198
REMARK   70  A    between atoms: _201  and  _203
REMARK   71  A    between atoms: _203  and  _204
REMARK   72  A    between atoms: _203  and  _206
REMARK   73  A    between atoms: _206  and  _207
REMARK   74  A    between atoms: _210  and  _212
REMARK   75  A    between atoms: _212  and  _213
REMARK   76  A    between atoms: _212  and  _215
REMARK   77  A    between atoms: _215  and  _216
REMARK   78  A    between atoms: _216  and  _217
REMARK   79  A    between atoms: _217  and  _218
REMARK   80  A    between atoms: _227  and  _229
REMARK   81  A    between atoms: _229  and  _230
REMARK   82  A    between atoms: _232  and  _234
REMARK   83  A    between atoms: _234  and  _235
REMARK   84  A    between atoms: _234  and  _237
REMARK   85  A    between atoms: _237  and  _238
REMARK   86  A    between atoms: _241  and  _243
REMARK   87  A    between atoms: _243  and  _244
REMARK   88  A    between atoms: _243  and  _246
REMARK   89  A    between atoms: _246  and  _247
REMARK   90  A    between atoms: _250  and  _252
REMARK   91  A    between atoms: _252  and  _253
REMARK   92  A    between atoms: _252  and  _255
REMARK   93  A    between atoms: _255  and  _256
REMARK   94  A    between atoms: _262  and  _264
REMARK   95  A    between atoms: _264  and  _265
REMARK   96  A    between atoms: _264  and  _267
REMARK   97  A    between atoms: _267  and  _268
REMARK   98  A    between atoms: _268  and  _269
REMARK   99  A    between atoms: _269  and  _270
REMARK  100  A    between atoms: _279  and  _281
REMARK  101  A    between atoms: _281  and  _282
REMARK  102  A    between atoms: _281  and  _284
REMARK  103  A    between atoms: _284  and  _285
REMARK  104  A    between atoms: _295  and  _297
REMARK  105  A    between atoms: _297  and  _298
REMARK  106  A    between atoms: _297  and  _300
REMARK  107  A    between atoms: _300  and  _301
REMARK  108  A    between atoms: _306  and  _308
REMARK  109  A    between atoms: _308  and  _309
REMARK  110  A    between atoms: _308  and  _311
REMARK  111  A    between atoms: _311  and  _312
REMARK  112  A    between atoms: _316  and  ZN_415
REMARK  113  A    between atoms: _317  and  _319
REMARK  114  A    between atoms: _319  and  _320
REMARK  115  A    between atoms: _319  and  _322
REMARK  116  A    between atoms: _322  and  _323
REMARK  117  A    between atoms: _326  and  _328
REMARK  118  A    between atoms: _328  and  _329
REMARK  119  A    between atoms: _331  and  _333
REMARK  120  A    between atoms: _333  and  _334
REMARK  121  A    between atoms: _333  and  _336
REMARK  122  A    between atoms: _336  and  _337
REMARK  123  A    between atoms: _340  and  _342
REMARK  124  A    between atoms: _342  and  _343
REMARK  125  A    between atoms: _342  and  _345
REMARK  126  A    between atoms: _345  and  _346
REMARK  127  A    between atoms: _349  and  _351
REMARK  128  A    between atoms: _351  and  _352
REMARK  129  A    between atoms: _355  and  _357
REMARK  130  A    between atoms: _357  and  _358
REMARK  131  A    between atoms: _357  and  _360
REMARK  132  A    between atoms: _360  and  _361
REMARK  133  A    between atoms: _366  and  _367
REMARK  134  A    between atoms: _369  and  _371
REMARK  135  A    between atoms: _371  and  _372
REMARK  136  A    between atoms: _371  and  _374
REMARK  137  A    between atoms: _374  and  _375
REMARK  138  A    between atoms: _375  and  _376
REMARK  139  A    between atoms: _379  and  _381
REMARK  140  A    between atoms: _381  and  _382
REMARK  141  A    between atoms: _381  and  _384
REMARK  142  A    between atoms: _384  and  _385
REMARK  143  A    between atoms: _385  and  _386
REMARK  144  A    between atoms: _386  and  _387
REMARK  145  A    between atoms: _396  and  _398
REMARK  146  A    between atoms: _398  and  _399
REMARK  147  A    between atoms: _401  and  _403
REMARK  148  A    between atoms: _403  and  _404
REMARK  149  A    between atoms: _403  and  _406
REMARK  150  A    between atoms: _406  and  _407
REMARK  151  A    between atoms: _410  and  _412
REMARK  152  A    between atoms: _412  and  _413
REMARK                            x       y       z     vdW  Elec       q    Type
REMARK                         _______ _______ _______ _____ _____    ______ ____
ROOT
ATOM      1  O   HOH     1      28.831  65.473  19.651  0.00  0.00    +0.000 OA
ENDROOT
TORSDOF 0
REMARK  Name = ../refined-set-2016/3ddf/3ddf_pocket.pdb
REMARK  152 active torsions:
REMARK  status: ('A' for Active; 'I' for Inactive)
REMARK    1  A    between atoms: _1  and  _3
REMARK    2  A    between atoms: _14  and  _17
REMARK    3  A    between atoms: _17  and  _18
REMARK    4  A    between atoms: _25  and  _26
REMARK    5  A    between atoms: _33  and  _34
REMARK    6  A    between atoms: _39  and  _41
REMARK    7  A    between atoms: _41  and  _42
REMARK    8  A    between atoms: _44  and  _46
REMARK    9  A    between atoms: _46  and  _47
REMARK   10  A    between atoms: _46  and  _49
REMARK   11  A    between atoms: _49  and  _50
REMARK   12  A    between atoms: _60  and  _62
REMARK   13  A    between atoms: _62  and  _63
REMARK   14  A    between atoms: _62  and  _65
REMARK   15  A    between atoms: _65  and  _66
REMARK   16  A    between atoms: _69  and  _71
REMARK   17  A    between atoms: _71  and  _72
REMARK   18  A    between atoms: _71  and  _74
REMARK   19  A    between atoms: _74  and  _75
REMARK   20  A    between atoms: _80  and  _81
REMARK   21  A    between atoms: _83  and  _85
REMARK   22  A    between atoms: _85  and  _86
REMARK   23  A    between atoms: _85  and  _88
REMARK   24  A    between atoms: _88  and  _89
REMARK   25  A    between atoms: _89  and  _90
REMARK   26  A    between atoms: _93  and  _95
REMARK   27  A    between atoms: _95  and  _96
REMARK   28  A    between atoms: _95  and  _98
REMARK   29  A    between atoms: _98  and  _99
REMARK   30  A    between atoms: _99  and  _100
REMARK   31  A    between atoms: _102  and  _104
REMARK   32  A    between atoms: _104  and  _105
REMARK   33  A    between atoms: _104  and  _107
REMARK   34  A    between atoms: _107  and  _108
REMARK   35  A    between atoms: _111  and  _113
REMARK   36  A    between atoms: _113  and  _114
REMARK   37  A    between atoms: _113  and  _116
REMARK   38  A    between atoms: _116  and  _117
REMARK   39  A    between atoms: _117  and  _118
REMARK   40  A    between atoms: _118  and  ZN_415
REMARK   41  A    between atoms: _121  and  _122
REMARK   42  A    between atoms: _127  and  _129
REMARK   43  A    between atoms: _129  and  _130
REMARK   44  A    between atoms: _129  and  _132
REMARK   45  A    between atoms: _132  and  _133
REMARK   46  A    between atoms: _139  and  _141
REMARK   47  A    between atoms: _141  and  _142
REMARK   48  A    between atoms: _141  and  _144
REMARK   49  A    between atoms: _144  and  _145
REMARK   50  A    between atoms: _145  and  _146
REMARK   51  A    between atoms: _146  and  _147
REMARK   52  A    between atoms: _156  and  _158
REMARK   53  A    between atoms: _158  and  _159
REMARK   54  A    between atoms: _158  and  _161
REMARK   55  A    between atoms: _161  and  _162
REMARK   56  A    between atoms: _167  and  _168
REMARK   57  A    between atoms: _170  and  _172
REMARK   58  A    between atoms: _172  and  _173
REMARK   59  A    between atoms: _172  and  _175
REMARK   60  A    between atoms: _175  and  _176
REMARK   61  A    between atoms: _178  and  _180
REMARK   62  A    between atoms: _180  and  _181
REMARK   63  A    between atoms: _180  and  _183
REMARK   64  A    between atoms: _183  and  _184
REMARK   65  A    between atoms: _189  and  _190
REMARK   66  A    between atoms: _192  and  _194
REMARK   67  A    between atoms: _194  and  _195
REMARK   68  A    between atoms: _194  and  _197
REMARK   69  A    between atoms: _197  and  _198
REMARK   70  A    between atoms: _201  and  _203
REMARK   71  A    between atoms: _203  and  _204
REMARK   72  A    between atoms: _203  and  _206
REMARK   73  A    between atoms: _206  and  _207
REMARK   74  A    between atoms: _210  and  _212
REMARK   75  A    between atoms: _212  and  _213
REMARK   76  A    between atoms: _212  and  _215
REMARK   77  A    between atoms: _215  and  _216
REMARK   78  A    between atoms: _216  and  _217
REMARK   79  A    between atoms: _217  and  _218
REMARK   80  A    between atoms: _227  and  _229
REMARK   81  A    between atoms: _229  and  _230
REMARK   82  A    between atoms: _232  and  _234
REMARK   83  A    between atoms: _234  and  _235
REMARK   84  A    between atoms: _234  and  _237
REMARK   85  A    between atoms: _237  and  _238
REMARK   86  A    between atoms: _241  and  _243
REMARK   87  A    between atoms: _243  and  _244
REMARK   88  A    between atoms: _243  and  _246
REMARK   89  A    between atoms: _246  and  _247
REMARK   90  A    between atoms: _250  and  _252
REMARK   91  A    between atoms: _252  and  _253
REMARK   92  A    between atoms: _252  and  _255
REMARK   93  A    between atoms: _255  and  _256
REMARK   94  A    between atoms: _262  and  _264
REMARK   95  A    between atoms: _264  and  _265
REMARK   96  A    between atoms: _264  and  _267
REMARK   97  A    between atoms: _267  and  _268
REMARK   98  A    between atoms: _268  and  _269
REMARK   99  A    between atoms: _269  and  _270
REMARK  100  A    between atoms: _279  and  _281
REMARK  101  A    between atoms: _281  and  _282
REMARK  102  A    between atoms: _281  and  _284
REMARK  103  A    between atoms: _284  and  _285
REMARK  104  A    between atoms: _295  and  _297
REMARK  105  A    between atoms: _297  and  _298
REMARK  106  A    between atoms: _297  and  _300
REMARK  107  A    between atoms: _300  and  _301
REMARK  108  A    between atoms: _306  and  _308
REMARK  109  A    between atoms: _308  and  _309
REMARK  110  A    between atoms: _308  and  _311
REMARK  111  A    between atoms: _311  and  _312
REMARK  112  A    between atoms: _316  and  ZN_415
REMARK  113  A    between atoms: _317  and  _319
REMARK  114  A    between atoms: _319  and  _320
REMARK  115  A    between atoms: _319  and  _322
REMARK  116  A    between atoms: _322  and  _323
REMARK  117  A    between atoms: _326  and  _328
REMARK  118  A    between atoms: _328  and  _329
REMARK  119  A    between atoms: _331  and  _333
REMARK  120  A    between atoms: _333  and  _334
REMARK  121  A    between atoms: _333  and  _336
REMARK  122  A    between atoms: _336  and  _337
REMARK  123  A    between atoms: _340  and  _342
REMARK  124  A    between atoms: _342  and  _343
REMARK  125  A    between atoms: _342  and  _345
REMARK  126  A    between atoms: _345  and  _346
REMARK  127  A    between atoms: _349  and  _351
REMARK  128  A    between atoms: _351  and  _352
REMARK  129  A    between atoms: _355  and  _357
REMARK  130  A    between atoms: _357  and  _358
REMARK  131  A    between atoms: _357  and  _360
REMARK  132  A    between atoms: _360  and  _361
REMARK  133  A    between atoms: _366  and  _367
REMARK  134  A    between atoms: _369  and  _371
REMARK  135  A    between atoms: _371  and  _372
REMARK  136  A    between atoms: _371  and  _374
REMARK  137  A    between atoms: _374  and  _375
REMARK  138  A    between atoms: _375  and  _376
REMARK  139  A    between atoms: _379  and  _381
REMARK  140  A    between atoms: _381  and  _382
REMARK  141  A    between atoms: _381  and  _384
REMARK  142  A    between atoms: _384  and  _385
REMARK  143  A    between atoms: _385  and  _386
REMARK  144  A    between atoms: _386  and  _387
REMARK  145  A    between atoms: _396  and  _398
REMARK  146  A    between atoms: _398  and  _399
REMARK  147  A    between atoms: _401  and  _403
REMARK  148  A    between atoms: _403  and  _404
REMARK  149  A    between atoms: _403  and  _406
REMARK  150  A    between atoms: _406  and  _407
REMARK  151  A    between atoms: _410  and  _412
REMARK  152  A    between atoms: _412  and  _413
REMARK                            x       y       z     vdW  Elec       q    Type
REMARK                         _______ _______ _______ _____ _____    ______ ____
ROOT
ATOM      1  O   HOH     1      29.736  65.916  16.916  0.00  0.00    +0.000 OA
ENDROOT
TORSDOF 0
REMARK  Name = ../refined-set-2016/3ddf/3ddf_pocket.pdb
REMARK  152 active torsions:
REMARK  status: ('A' for Active; 'I' for Inactive)
REMARK    1  A    between atoms: _1  and  _3
REMARK    2  A    between atoms: _14  and  _17
REMARK    3  A    between atoms: _17  and  _18
REMARK    4  A    between atoms: _25  and  _26
REMARK    5  A    between atoms: _33  and  _34
REMARK    6  A    between atoms: _39  and  _41
REMARK    7  A    between atoms: _41  and  _42
REMARK    8  A    between atoms: _44  and  _46
REMARK    9  A    between atoms: _46  and  _47
REMARK   10  A    between atoms: _46  and  _49
REMARK   11  A    between atoms: _49  and  _50
REMARK   12  A    between atoms: _60  and  _62
REMARK   13  A    between atoms: _62  and  _63
REMARK   14  A    between atoms: _62  and  _65
REMARK   15  A    between atoms: _65  and  _66
REMARK   16  A    between atoms: _69  and  _71
REMARK   17  A    between atoms: _71  and  _72
REMARK   18  A    between atoms: _71  and  _74
REMARK   19  A    between atoms: _74  and  _75
REMARK   20  A    between atoms: _80  and  _81
REMARK   21  A    between atoms: _83  and  _85
REMARK   22  A    between atoms: _85  and  _86
REMARK   23  A    between atoms: _85  and  _88
REMARK   24  A    between atoms: _88  and  _89
REMARK   25  A    between atoms: _89  and  _90
REMARK   26  A    between atoms: _93  and  _95
REMARK   27  A    between atoms: _95  and  _96
REMARK   28  A    between atoms: _95  and  _98
REMARK   29  A    between atoms: _98  and  _99
REMARK   30  A    between atoms: _99  and  _100
REMARK   31  A    between atoms: _102  and  _104
REMARK   32  A    between atoms: _104  and  _105
REMARK   33  A    between atoms: _104  and  _107
REMARK   34  A    between atoms: _107  and  _108
REMARK   35  A    between atoms: _111  and  _113
REMARK   36  A    between atoms: _113  and  _114
REMARK   37  A    between atoms: _113  and  _116
REMARK   38  A    between atoms: _116  and  _117
REMARK   39  A    between atoms: _117  and  _118
REMARK   40  A    between atoms: _118  and  ZN_415
REMARK   41  A    between atoms: _121  and  _122
REMARK   42  A    between atoms: _127  and  _129
REMARK   43  A    between atoms: _129  and  _130
REMARK   44  A    between atoms: _129  and  _132
REMARK   45  A    between atoms: _132  and  _133
REMARK   46  A    between atoms: _139  and  _141
REMARK   47  A    between atoms: _141  and  _142
REMARK   48  A    between atoms: _141  and  _144
REMARK   49  A    between atoms: _144  and  _145
REMARK   50  A    between atoms: _145  and  _146
REMARK   51  A    between atoms: _146  and  _147
REMARK   52  A    between atoms: _156  and  _158
REMARK   53  A    between atoms: _158  and  _159
REMARK   54  A    between atoms: _158  and  _161
REMARK   55  A    between atoms: _161  and  _162
REMARK   56  A    between atoms: _167  and  _168
REMARK   57  A    between atoms: _170  and  _172
REMARK   58  A    between atoms: _172  and  _173
REMARK   59  A    between atoms: _172  and  _175
REMARK   60  A    between atoms: _175  and  _176
REMARK   61  A    between atoms: _178  and  _180
REMARK   62  A    between atoms: _180  and  _181
REMARK   63  A    between atoms: _180  and  _183
REMARK   64  A    between atoms: _183  and  _184
REMARK   65  A    between atoms: _189  and  _190
REMARK   66  A    between atoms: _192  and  _194
REMARK   67  A    between atoms: _194  and  _195
REMARK   68  A    between atoms: _194  and  _197
REMARK   69  A    between atoms: _197  and  _198
REMARK   70  A    between atoms: _201  and  _203
REMARK   71  A    between atoms: _203  and  _204
REMARK   72  A    between atoms: _203  and  _206
REMARK   73  A    between atoms: _206  and  _207
REMARK   74  A    between atoms: _210  and  _212
REMARK   75  A    between atoms: _212  and  _213
REMARK   76  A    between atoms: _212  and  _215
REMARK   77  A    between atoms: _215  and  _216
REMARK   78  A    between atoms: _216  and  _217
REMARK   79  A    between atoms: _217  and  _218
REMARK   80  A    between atoms: _227  and  _229
REMARK   81  A    between atoms: _229  and  _230
REMARK   82  A    between atoms: _232  and  _234
REMARK   83  A    between atoms: _234  and  _235
REMARK   84  A    between atoms: _234  and  _237
REMARK   85  A    between atoms: _237  and  _238
REMARK   86  A    between atoms: _241  and  _243
REMARK   87  A    between atoms: _243  and  _244
REMARK   88  A    between atoms: _243  and  _246
REMARK   89  A    between atoms: _246  and  _247
REMARK   90  A    between atoms: _250  and  _252
REMARK   91  A    between atoms: _252  and  _253
REMARK   92  A    between atoms: _252  and  _255
REMARK   93  A    between atoms: _255  and  _256
REMARK   94  A    between atoms: _262  and  _264
REMARK   95  A    between atoms: _264  and  _265
REMARK   96  A    between atoms: _264  and  _267
REMARK   97  A    between atoms: _267  and  _268
REMARK   98  A    between atoms: _268  and  _269
REMARK   99  A    between atoms: _269  and  _270
REMARK  100  A    between atoms: _279  and  _281
REMARK  101  A    between atoms: _281  and  _282
REMARK  102  A    between atoms: _281  and  _284
REMARK  103  A    between atoms: _284  and  _285
REMARK  104  A    between atoms: _295  and  _297
REMARK  105  A    between atoms: _297  and  _298
REMARK  106  A    between atoms: _297  and  _300
REMARK  107  A    between atoms: _300  and  _301
REMARK  108  A    between atoms: _306  and  _308
REMARK  109  A    between atoms: _308  and  _309
REMARK  110  A    between atoms: _308  and  _311
REMARK  111  A    between atoms: _311  and  _312
REMARK  112  A    between atoms: _316  and  ZN_415
REMARK  113  A    between atoms: _317  and  _319
REMARK  114  A    between atoms: _319  and  _320
REMARK  115  A    between atoms: _319  and  _322
REMARK  116  A    between atoms: _322  and  _323
REMARK  117  A    between atoms: _326  and  _328
REMARK  118  A    between atoms: _328  and  _329
REMARK  119  A    between atoms: _331  and  _333
REMARK  120  A    between atoms: _333  and  _334
REMARK  121  A    between atoms: _333  and  _336
REMARK  122  A    between atoms: _336  and  _337
REMARK  123  A    between atoms: _340  and  _342
REMARK  124  A    between atoms: _342  and  _343
REMARK  125  A    between atoms: _342  and  _345
REMARK  126  A    between atoms: _345  and  _346
REMARK  127  A    between atoms: _349  and  _351
REMARK  128  A    between atoms: _351  and  _352
REMARK  129  A    between atoms: _355  and  _357
REMARK  130  A    between atoms: _357  and  _358
REMARK  131  A    between atoms: _357  and  _360
REMARK  132  A    between atoms: _360  and  _361
REMARK  133  A    between atoms: _366  and  _367
REMARK  134  A    between atoms: _369  and  _371
REMARK  135  A    between atoms: _371  and  _372
REMARK  136  A    between atoms: _371  and  _374
REMARK  137  A    between atoms: _374  and  _375
REMARK  138  A    between atoms: _375  and  _376
REMARK  139  A    between atoms: _379  and  _381
REMARK  140  A    between atoms: _381  and  _382
REMARK  141  A    between atoms: _381  and  _384
REMARK  142  A    between atoms: _384  and  _385
REMARK  143  A    between atoms: _385  and  _386
REMARK  144  A    between atoms: _386  and  _387
REMARK  145  A    between atoms: _396  and  _398
REMARK  146  A    between atoms: _398  and  _399
REMARK  147  A    between atoms: _401  and  _403
REMARK  148  A    between atoms: _403  and  _404
REMARK  149  A    between atoms: _403  and  _406
REMARK  150  A    between atoms: _406  and  _407
REMARK  151  A    between atoms: _410  and  _412
REMARK  152  A    between atoms: _412  and  _413
REMARK                            x       y       z     vdW  Elec       q    Type
REMARK                         _______ _______ _______ _____ _____    ______ ____
ROOT
ATOM      1  O   HOH     1      28.621  67.825  16.089  0.00  0.00    +0.000 OA
ENDROOT
TORSDOF 0
REMARK  Name = ../refined-set-2016/3ddf/3ddf_pocket.pdb
REMARK  152 active torsions:
REMARK  status: ('A' for Active; 'I' for Inactive)
REMARK    1  A    between atoms: _1  and  _3
REMARK    2  A    between atoms: _14  and  _17
REMARK    3  A    between atoms: _17  and  _18
REMARK    4  A    between atoms: _25  and  _26
REMARK    5  A    between atoms: _33  and  _34
REMARK    6  A    between atoms: _39  and  _41
REMARK    7  A    between atoms: _41  and  _42
REMARK    8  A    between atoms: _44  and  _46
REMARK    9  A    between atoms: _46  and  _47
REMARK   10  A    between atoms: _46  and  _49
REMARK   11  A    between atoms: _49  and  _50
REMARK   12  A    between atoms: _60  and  _62
REMARK   13  A    between atoms: _62  and  _63
REMARK   14  A    between atoms: _62  and  _65
REMARK   15  A    between atoms: _65  and  _66
REMARK   16  A    between atoms: _69  and  _71
REMARK   17  A    between atoms: _71  and  _72
REMARK   18  A    between atoms: _71  and  _74
REMARK   19  A    between atoms: _74  and  _75
REMARK   20  A    between atoms: _80  and  _81
REMARK   21  A    between atoms: _83  and  _85
REMARK   22  A    between atoms: _85  and  _86
REMARK   23  A    between atoms: _85  and  _88
REMARK   24  A    between atoms: _88  and  _89
REMARK   25  A    between atoms: _89  and  _90
REMARK   26  A    between atoms: _93  and  _95
REMARK   27  A    between atoms: _95  and  _96
REMARK   28  A    between atoms: _95  and  _98
REMARK   29  A    between atoms: _98  and  _99
REMARK   30  A    between atoms: _99  and  _100
REMARK   31  A    between atoms: _102  and  _104
REMARK   32  A    between atoms: _104  and  _105
REMARK   33  A    between atoms: _104  and  _107
REMARK   34  A    between atoms: _107  and  _108
REMARK   35  A    between atoms: _111  and  _113
REMARK   36  A    between atoms: _113  and  _114
REMARK   37  A    between atoms: _113  and  _116
REMARK   38  A    between atoms: _116  and  _117
REMARK   39  A    between atoms: _117  and  _118
REMARK   40  A    between atoms: _118  and  ZN_415
REMARK   41  A    between atoms: _121  and  _122
REMARK   42  A    between atoms: _127  and  _129
REMARK   43  A    between atoms: _129  and  _130
REMARK   44  A    between atoms: _129  and  _132
REMARK   45  A    between atoms: _132  and  _133
REMARK   46  A    between atoms: _139  and  _141
REMARK   47  A    between atoms: _141  and  _142
REMARK   48  A    between atoms: _141  and  _144
REMARK   49  A    between atoms: _144  and  _145
REMARK   50  A    between atoms: _145  and  _146
REMARK   51  A    between atoms: _146  and  _147
REMARK   52  A    between atoms: _156  and  _158
REMARK   53  A    between atoms: _158  and  _159
REMARK   54  A    between atoms: _158  and  _161
REMARK   55  A    between atoms: _161  and  _162
REMARK   56  A    between atoms: _167  and  _168
REMARK   57  A    between atoms: _170  and  _172
REMARK   58  A    between atoms: _172  and  _173
REMARK   59  A    between atoms: _172  and  _175
REMARK   60  A    between atoms: _175  and  _176
REMARK   61  A    between atoms: _178  and  _180
REMARK   62  A    between atoms: _180  and  _181
REMARK   63  A    between atoms: _180  and  _183
REMARK   64  A    between atoms: _183  and  _184
REMARK   65  A    between atoms: _189  and  _190
REMARK   66  A    between atoms: _192  and  _194
REMARK   67  A    between atoms: _194  and  _195
REMARK   68  A    between atoms: _194  and  _197
REMARK   69  A    between atoms: _197  and  _198
REMARK   70  A    between atoms: _201  and  _203
REMARK   71  A    between atoms: _203  and  _204
REMARK   72  A    between atoms: _203  and  _206
REMARK   73  A    between atoms: _206  and  _207
REMARK   74  A    between atoms: _210  and  _212
REMARK   75  A    between atoms: _212  and  _213
REMARK   76  A    between atoms: _212  and  _215
REMARK   77  A    between atoms: _215  and  _216
REMARK   78  A    between atoms: _216  and  _217
REMARK   79  A    between atoms: _217  and  _218
REMARK   80  A    between atoms: _227  and  _229
REMARK   81  A    between atoms: _229  and  _230
REMARK   82  A    between atoms: _232  and  _234
REMARK   83  A    between atoms: _234  and  _235
REMARK   84  A    between atoms: _234  and  _237
REMARK   85  A    between atoms: _237  and  _238
REMARK   86  A    between atoms: _241  and  _243
REMARK   87  A    between atoms: _243  and  _244
REMARK   88  A    between atoms: _243  and  _246
REMARK   89  A    between atoms: _246  and  _247
REMARK   90  A    between atoms: _250  and  _252
REMARK   91  A    between atoms: _252  and  _253
REMARK   92  A    between atoms: _252  and  _255
REMARK   93  A    between atoms: _255  and  _256
REMARK   94  A    between atoms: _262  and  _264
REMARK   95  A    between atoms: _264  and  _265
REMARK   96  A    between atoms: _264  and  _267
REMARK   97  A    between atoms: _267  and  _268
REMARK   98  A    between atoms: _268  and  _269
REMARK   99  A    between atoms: _269  and  _270
REMARK  100  A    between atoms: _279  and  _281
REMARK  101  A    between atoms: _281  and  _282
REMARK  102  A    between atoms: _281  and  _284
REMARK  103  A    between atoms: _284  and  _285
REMARK  104  A    between atoms: _295  and  _297
REMARK  105  A    between atoms: _297  and  _298
REMARK  106  A    between atoms: _297  and  _300
REMARK  107  A    between atoms: _300  and  _301
REMARK  108  A    between atoms: _306  and  _308
REMARK  109  A    between atoms: _308  and  _309
REMARK  110  A    between atoms: _308  and  _311
REMARK  111  A    between atoms: _311  and  _312
REMARK  112  A    between atoms: _316  and  ZN_415
REMARK  113  A    between atoms: _317  and  _319
REMARK  114  A    between atoms: _319  and  _320
REMARK  115  A    between atoms: _319  and  _322
REMARK  116  A    between atoms: _322  and  _323
REMARK  117  A    between atoms: _326  and  _328
REMARK  118  A    between atoms: _328  and  _329
REMARK  119  A    between atoms: _331  and  _333
REMARK  120  A    between atoms: _333  and  _334
REMARK  121  A    between atoms: _333  and  _336
REMARK  122  A    between atoms: _336  and  _337
REMARK  123  A    between atoms: _340  and  _342
REMARK  124  A    between atoms: _342  and  _343
REMARK  125  A    between atoms: _342  and  _345
REMARK  126  A    between atoms: _345  and  _346
REMARK  127  A    between atoms: _349  and  _351
REMARK  128  A    between atoms: _351  and  _352
REMARK  129  A    between atoms: _355  and  _357
REMARK  130  A    between atoms: _357  and  _358
REMARK  131  A    between atoms: _357  and  _360
REMARK  132  A    between atoms: _360  and  _361
REMARK  133  A    between atoms: _366  and  _367
REMARK  134  A    between atoms: _369  and  _371
REMARK  135  A    between atoms: _371  and  _372
REMARK  136  A    between atoms: _371  and  _374
REMARK  137  A    between atoms: _374  and  _375
REMARK  138  A    between atoms: _375  and  _376
REMARK  139  A    between atoms: _379  and  _381
REMARK  140  A    between atoms: _381  and  _382
REMARK  141  A    between atoms: _381  and  _384
REMARK  142  A    between atoms: _384  and  _385
REMARK  143  A    between atoms: _385  and  _386
REMARK  144  A    between atoms: _386  and  _387
REMARK  145  A    between atoms: _396  and  _398
REMARK  146  A    between atoms: _398  and  _399
REMARK  147  A    between atoms: _401  and  _403
REMARK  148  A    between atoms: _403  and  _404
REMARK  149  A    between atoms: _403  and  _406
REMARK  150  A    between atoms: _406  and  _407
REMARK  151  A    between atoms: _410  and  _412
REMARK  152  A    between atoms: _412  and  _413
REMARK                            x       y       z     vdW  Elec       q    Type
REMARK                         _______ _______ _______ _____ _____    ______ ____
ROOT
ATOM      1  O   HOH     1      26.452  68.015  15.389  0.00  0.00    +0.000 OA
ENDROOT
TORSDOF 0
REMARK  Name = ../refined-set-2016/3ddf/3ddf_pocket.pdb
REMARK  152 active torsions:
REMARK  status: ('A' for Active; 'I' for Inactive)
REMARK    1  A    between atoms: _1  and  _3
REMARK    2  A    between atoms: _14  and  _17
REMARK    3  A    between atoms: _17  and  _18
REMARK    4  A    between atoms: _25  and  _26
REMARK    5  A    between atoms: _33  and  _34
REMARK    6  A    between atoms: _39  and  _41
REMARK    7  A    between atoms: _41  and  _42
REMARK    8  A    between atoms: _44  and  _46
REMARK    9  A    between atoms: _46  and  _47
REMARK   10  A    between atoms: _46  and  _49
REMARK   11  A    between atoms: _49  and  _50
REMARK   12  A    between atoms: _60  and  _62
REMARK   13  A    between atoms: _62  and  _63
REMARK   14  A    between atoms: _62  and  _65
REMARK   15  A    between atoms: _65  and  _66
REMARK   16  A    between atoms: _69  and  _71
REMARK   17  A    between atoms: _71  and  _72
REMARK   18  A    between atoms: _71  and  _74
REMARK   19  A    between atoms: _74  and  _75
REMARK   20  A    between atoms: _80  and  _81
REMARK   21  A    between atoms: _83  and  _85
REMARK   22  A    between atoms: _85  and  _86
REMARK   23  A    between atoms: _85  and  _88
REMARK   24  A    between atoms: _88  and  _89
REMARK   25  A    between atoms: _89  and  _90
REMARK   26  A    between atoms: _93  and  _95
REMARK   27  A    between atoms: _95  and  _96
REMARK   28  A    between atoms: _95  and  _98
REMARK   29  A    between atoms: _98  and  _99
REMARK   30  A    between atoms: _99  and  _100
REMARK   31  A    between atoms: _102  and  _104
REMARK   32  A    between atoms: _104  and  _105
REMARK   33  A    between atoms: _104  and  _107
REMARK   34  A    between atoms: _107  and  _108
REMARK   35  A    between atoms: _111  and  _113
REMARK   36  A    between atoms: _113  and  _114
REMARK   37  A    between atoms: _113  and  _116
REMARK   38  A    between atoms: _116  and  _117
REMARK   39  A    between atoms: _117  and  _118
REMARK   40  A    between atoms: _118  and  ZN_415
REMARK   41  A    between atoms: _121  and  _122
REMARK   42  A    between atoms: _127  and  _129
REMARK   43  A    between atoms: _129  and  _130
REMARK   44  A    between atoms: _129  and  _132
REMARK   45  A    between atoms: _132  and  _133
REMARK   46  A    between atoms: _139  and  _141
REMARK   47  A    between atoms: _141  and  _142
REMARK   48  A    between atoms: _141  and  _144
REMARK   49  A    between atoms: _144  and  _145
REMARK   50  A    between atoms: _145  and  _146
REMARK   51  A    between atoms: _146  and  _147
REMARK   52  A    between atoms: _156  and  _158
REMARK   53  A    between atoms: _158  and  _159
REMARK   54  A    between atoms: _158  and  _161
REMARK   55  A    between atoms: _161  and  _162
REMARK   56  A    between atoms: _167  and  _168
REMARK   57  A    between atoms: _170  and  _172
REMARK   58  A    between atoms: _172  and  _173
REMARK   59  A    between atoms: _172  and  _175
REMARK   60  A    between atoms: _175  and  _176
REMARK   61  A    between atoms: _178  and  _180
REMARK   62  A    between atoms: _180  and  _181
REMARK   63  A    between atoms: _180  and  _183
REMARK   64  A    between atoms: _183  and  _184
REMARK   65  A    between atoms: _189  and  _190
REMARK   66  A    between atoms: _192  and  _194
REMARK   67  A    between atoms: _194  and  _195
REMARK   68  A    between atoms: _194  and  _197
REMARK   69  A    between atoms: _197  and  _198
REMARK   70  A    between atoms: _201  and  _203
REMARK   71  A    between atoms: _203  and  _204
REMARK   72  A    between atoms: _203  and  _206
REMARK   73  A    between atoms: _206  and  _207
REMARK   74  A    between atoms: _210  and  _212
REMARK   75  A    between atoms: _212  and  _213
REMARK   76  A    between atoms: _212  and  _215
REMARK   77  A    between atoms: _215  and  _216
REMARK   78  A    between atoms: _216  and  _217
REMARK   79  A    between atoms: _217  and  _218
REMARK   80  A    between atoms: _227  and  _229
REMARK   81  A    between atoms: _229  and  _230
REMARK   82  A    between atoms: _232  and  _234
REMARK   83  A    between atoms: _234  and  _235
REMARK   84  A    between atoms: _234  and  _237
REMARK   85  A    between atoms: _237  and  _238
REMARK   86  A    between atoms: _241  and  _243
REMARK   87  A    between atoms: _243  and  _244
REMARK   88  A    between atoms: _243  and  _246
REMARK   89  A    between atoms: _246  and  _247
REMARK   90  A    between atoms: _250  and  _252
REMARK   91  A    between atoms: _252  and  _253
REMARK   92  A    between atoms: _252  and  _255
REMARK   93  A    between atoms: _255  and  _256
REMARK   94  A    between atoms: _262  and  _264
REMARK   95  A    between atoms: _264  and  _265
REMARK   96  A    between atoms: _264  and  _267
REMARK   97  A    between atoms: _267  and  _268
REMARK   98  A    between atoms: _268  and  _269
REMARK   99  A    between atoms: _269  and  _270
REMARK  100  A    between atoms: _279  and  _281
REMARK  101  A    between atoms: _281  and  _282
REMARK  102  A    between atoms: _281  and  _284
REMARK  103  A    between atoms: _284  and  _285
REMARK  104  A    between atoms: _295  and  _297
REMARK  105  A    between atoms: _297  and  _298
REMARK  106  A    between atoms: _297  and  _300
REMARK  107  A    between atoms: _300  and  _301
REMARK  108  A    between atoms: _306  and  _308
REMARK  109  A    between atoms: _308  and  _309
REMARK  110  A    between atoms: _308  and  _311
REMARK  111  A    between atoms: _311  and  _312
REMARK  112  A    between atoms: _316  and  ZN_415
REMARK  113  A    between atoms: _317  and  _319
REMARK  114  A    between atoms: _319  and  _320
REMARK  115  A    between atoms: _319  and  _322
REMARK  116  A    between atoms: _322  and  _323
REMARK  117  A    between atoms: _326  and  _328
REMARK  118  A    between atoms: _328  and  _329
REMARK  119  A    between atoms: _331  and  _333
REMARK  120  A    between atoms: _333  and  _334
REMARK  121  A    between atoms: _333  and  _336
REMARK  122  A    between atoms: _336  and  _337
REMARK  123  A    between atoms: _340  and  _342
REMARK  124  A    between atoms: _342  and  _343
REMARK  125  A    between atoms: _342  and  _345
REMARK  126  A    between atoms: _345  and  _346
REMARK  127  A    between atoms: _349  and  _351
REMARK  128  A    between atoms: _351  and  _352
REMARK  129  A    between atoms: _355  and  _357
REMARK  130  A    between atoms: _357  and  _358
REMARK  131  A    between atoms: _357  and  _360
REMARK  132  A    between atoms: _360  and  _361
REMARK  133  A    between atoms: _366  and  _367
REMARK  134  A    between atoms: _369  and  _371
REMARK  135  A    between atoms: _371  and  _372
REMARK  136  A    between atoms: _371  and  _374
REMARK  137  A    between atoms: _374  and  _375
REMARK  138  A    between atoms: _375  and  _376
REMARK  139  A    between atoms: _379  and  _381
REMARK  140  A    between atoms: _381  and  _382
REMARK  141  A    between atoms: _381  and  _384
REMARK  142  A    between atoms: _384  and  _385
REMARK  143  A    between atoms: _385  and  _386
REMARK  144  A    between atoms: _386  and  _387
REMARK  145  A    between atoms: _396  and  _398
REMARK  146  A    between atoms: _398  and  _399
REMARK  147  A    between atoms: _401  and  _403
REMARK  148  A    between atoms: _403  and  _404
REMARK  149  A    between atoms: _403  and  _406
REMARK  150  A    between atoms: _406  and  _407
REMARK  151  A    between atoms: _410  and  _412
REMARK  152  A    between atoms: _412  and  _413
REMARK                            x       y       z     vdW  Elec       q    Type
REMARK                         _______ _______ _______ _____ _____    ______ ____
ROOT
ATOM      1  O   HOH     1      24.934  66.352  13.957  0.00  0.00    +0.000 OA
ENDROOT
TORSDOF 0
REMARK  Name = ../refined-set-2016/3ddf/3ddf_pocket.pdb
REMARK  152 active torsions:
REMARK  status: ('A' for Active; 'I' for Inactive)
REMARK    1  A    between atoms: _1  and  _3
REMARK    2  A    between atoms: _14  and  _17
REMARK    3  A    between atoms: _17  and  _18
REMARK    4  A    between atoms: _25  and  _26
REMARK    5  A    between atoms: _33  and  _34
REMARK    6  A    between atoms: _39  and  _41
REMARK    7  A    between atoms: _41  and  _42
REMARK    8  A    between atoms: _44  and  _46
REMARK    9  A    between atoms: _46  and  _47
REMARK   10  A    between atoms: _46  and  _49
REMARK   11  A    between atoms: _49  and  _50
REMARK   12  A    between atoms: _60  and  _62
REMARK   13  A    between atoms: _62  and  _63
REMARK   14  A    between atoms: _62  and  _65
REMARK   15  A    between atoms: _65  and  _66
REMARK   16  A    between atoms: _69  and  _71
REMARK   17  A    between atoms: _71  and  _72
REMARK   18  A    between atoms: _71  and  _74
REMARK   19  A    between atoms: _74  and  _75
REMARK   20  A    between atoms: _80  and  _81
REMARK   21  A    between atoms: _83  and  _85
REMARK   22  A    between atoms: _85  and  _86
REMARK   23  A    between atoms: _85  and  _88
REMARK   24  A    between atoms: _88  and  _89
REMARK   25  A    between atoms: _89  and  _90
REMARK   26  A    between atoms: _93  and  _95
REMARK   27  A    between atoms: _95  and  _96
REMARK   28  A    between atoms: _95  and  _98
REMARK   29  A    between atoms: _98  and  _99
REMARK   30  A    between atoms: _99  and  _100
REMARK   31  A    between atoms: _102  and  _104
REMARK   32  A    between atoms: _104  and  _105
REMARK   33  A    between atoms: _104  and  _107
REMARK   34  A    between atoms: _107  and  _108
REMARK   35  A    between atoms: _111  and  _113
REMARK   36  A    between atoms: _113  and  _114
REMARK   37  A    between atoms: _113  and  _116
REMARK   38  A    between atoms: _116  and  _117
REMARK   39  A    between atoms: _117  and  _118
REMARK   40  A    between atoms: _118  and  ZN_415
REMARK   41  A    between atoms: _121  and  _122
REMARK   42  A    between atoms: _127  and  _129
REMARK   43  A    between atoms: _129  and  _130
REMARK   44  A    between atoms: _129  and  _132
REMARK   45  A    between atoms: _132  and  _133
REMARK   46  A    between atoms: _139  and  _141
REMARK   47  A    between atoms: _141  and  _142
REMARK   48  A    between atoms: _141  and  _144
REMARK   49  A    between atoms: _144  and  _145
REMARK   50  A    between atoms: _145  and  _146
REMARK   51  A    between atoms: _146  and  _147
REMARK   52  A    between atoms: _156  and  _158
REMARK   53  A    between atoms: _158  and  _159
REMARK   54  A    between atoms: _158  and  _161
REMARK   55  A    between atoms: _161  and  _162
REMARK   56  A    between atoms: _167  and  _168
REMARK   57  A    between atoms: _170  and  _172
REMARK   58  A    between atoms: _172  and  _173
REMARK   59  A    between atoms: _172  and  _175
REMARK   60  A    between atoms: _175  and  _176
REMARK   61  A    between atoms: _178  and  _180
REMARK   62  A    between atoms: _180  and  _181
REMARK   63  A    between atoms: _180  and  _183
REMARK   64  A    between atoms: _183  and  _184
REMARK   65  A    between atoms: _189  and  _190
REMARK   66  A    between atoms: _192  and  _194
REMARK   67  A    between atoms: _194  and  _195
REMARK   68  A    between atoms: _194  and  _197
REMARK   69  A    between atoms: _197  and  _198
REMARK   70  A    between atoms: _201  and  _203
REMARK   71  A    between atoms: _203  and  _204
REMARK   72  A    between atoms: _203  and  _206
REMARK   73  A    between atoms: _206  and  _207
REMARK   74  A    between atoms: _210  and  _212
REMARK   75  A    between atoms: _212  and  _213
REMARK   76  A    between atoms: _212  and  _215
REMARK   77  A    between atoms: _215  and  _216
REMARK   78  A    between atoms: _216  and  _217
REMARK   79  A    between atoms: _217  and  _218
REMARK   80  A    between atoms: _227  and  _229
REMARK   81  A    between atoms: _229  and  _230
REMARK   82  A    between atoms: _232  and  _234
REMARK   83  A    between atoms: _234  and  _235
REMARK   84  A    between atoms: _234  and  _237
REMARK   85  A    between atoms: _237  and  _238
REMARK   86  A    between atoms: _241  and  _243
REMARK   87  A    between atoms: _243  and  _244
REMARK   88  A    between atoms: _243  and  _246
REMARK   89  A    between atoms: _246  and  _247
REMARK   90  A    between atoms: _250  and  _252
REMARK   91  A    between atoms: _252  and  _253
REMARK   92  A    between atoms: _252  and  _255
REMARK   93  A    between atoms: _255  and  _256
REMARK   94  A    between atoms: _262  and  _264
REMARK   95  A    between atoms: _264  and  _265
REMARK   96  A    between atoms: _264  and  _267
REMARK   97  A    between atoms: _267  and  _268
REMARK   98  A    between atoms: _268  and  _269
REMARK   99  A    between atoms: _269  and  _270
REMARK  100  A    between atoms: _279  and  _281
REMARK  101  A    between atoms: _281  and  _282
REMARK  102  A    between atoms: _281  and  _284
REMARK  103  A    between atoms: _284  and  _285
REMARK  104  A    between atoms: _295  and  _297
REMARK  105  A    between atoms: _297  and  _298
REMARK  106  A    between atoms: _297  and  _300
REMARK  107  A    between atoms: _300  and  _301
REMARK  108  A    between atoms: _306  and  _308
REMARK  109  A    between atoms: _308  and  _309
REMARK  110  A    between atoms: _308  and  _311
REMARK  111  A    between atoms: _311  and  _312
REMARK  112  A    between atoms: _316  and  ZN_415
REMARK  113  A    between atoms: _317  and  _319
REMARK  114  A    between atoms: _319  and  _320
REMARK  115  A    between atoms: _319  and  _322
REMARK  116  A    between atoms: _322  and  _323
REMARK  117  A    between atoms: _326  and  _328
REMARK  118  A    between atoms: _328  and  _329
REMARK  119  A    between atoms: _331  and  _333
REMARK  120  A    between atoms: _333  and  _334
REMARK  121  A    between atoms: _333  and  _336
REMARK  122  A    between atoms: _336  and  _337
REMARK  123  A    between atoms: _340  and  _342
REMARK  124  A    between atoms: _342  and  _343
REMARK  125  A    between atoms: _342  and  _345
REMARK  126  A    between atoms: _345  and  _346
REMARK  127  A    between atoms: _349  and  _351
REMARK  128  A    between atoms: _351  and  _352
REMARK  129  A    between atoms: _355  and  _357
REMARK  130  A    between atoms: _357  and  _358
REMARK  131  A    between atoms: _357  and  _360
REMARK  132  A    between atoms: _360  and  _361
REMARK  133  A    between atoms: _366  and  _367
REMARK  134  A    between atoms: _369  and  _371
REMARK  135  A    between atoms: _371  and  _372
REMARK  136  A    between atoms: _371  and  _374
REMARK  137  A    between atoms: _374  and  _375
REMARK  138  A    between atoms: _375  and  _376
REMARK  139  A    between atoms: _379  and  _381
REMARK  140  A    between atoms: _381  and  _382
REMARK  141  A    between atoms: _381  and  _384
REMARK  142  A    between atoms: _384  and  _385
REMARK  143  A    between atoms: _385  and  _386
REMARK  144  A    between atoms: _386  and  _387
REMARK  145  A    between atoms: _396  and  _398
REMARK  146  A    between atoms: _398  and  _399
REMARK  147  A    between atoms: _401  and  _403
REMARK  148  A    between atoms: _403  and  _404
REMARK  149  A    between atoms: _403  and  _406
REMARK  150  A    between atoms: _406  and  _407
REMARK  151  A    between atoms: _410  and  _412
REMARK  152  A    between atoms: _412  and  _413
REMARK                            x       y       z     vdW  Elec       q    Type
REMARK                         _______ _______ _______ _____ _____    ______ ____
ROOT
ATOM      1  O   HOH     1      26.527  63.931  16.589  0.00  0.00    +0.000 OA
ENDROOT
TORSDOF 0
REMARK  Name = ../refined-set-2016/3ddf/3ddf_pocket.pdb
REMARK  152 active torsions:
REMARK  status: ('A' for Active; 'I' for Inactive)
REMARK    1  A    between atoms: _1  and  _3
REMARK    2  A    between atoms: _14  and  _17
REMARK    3  A    between atoms: _17  and  _18
REMARK    4  A    between atoms: _25  and  _26
REMARK    5  A    between atoms: _33  and  _34
REMARK    6  A    between atoms: _39  and  _41
REMARK    7  A    between atoms: _41  and  _42
REMARK    8  A    between atoms: _44  and  _46
REMARK    9  A    between atoms: _46  and  _47
REMARK   10  A    between atoms: _46  and  _49
REMARK   11  A    between atoms: _49  and  _50
REMARK   12  A    between atoms: _60  and  _62
REMARK   13  A    between atoms: _62  and  _63
REMARK   14  A    between atoms: _62  and  _65
REMARK   15  A    between atoms: _65  and  _66
REMARK   16  A    between atoms: _69  and  _71
REMARK   17  A    between atoms: _71  and  _72
REMARK   18  A    between atoms: _71  and  _74
REMARK   19  A    between atoms: _74  and  _75
REMARK   20  A    between atoms: _80  and  _81
REMARK   21  A    between atoms: _83  and  _85
REMARK   22  A    between atoms: _85  and  _86
REMARK   23  A    between atoms: _85  and  _88
REMARK   24  A    between atoms: _88  and  _89
REMARK   25  A    between atoms: _89  and  _90
REMARK   26  A    between atoms: _93  and  _95
REMARK   27  A    between atoms: _95  and  _96
REMARK   28  A    between atoms: _95  and  _98
REMARK   29  A    between atoms: _98  and  _99
REMARK   30  A    between atoms: _99  and  _100
REMARK   31  A    between atoms: _102  and  _104
REMARK   32  A    between atoms: _104  and  _105
REMARK   33  A    between atoms: _104  and  _107
REMARK   34  A    between atoms: _107  and  _108
REMARK   35  A    between atoms: _111  and  _113
REMARK   36  A    between atoms: _113  and  _114
REMARK   37  A    between atoms: _113  and  _116
REMARK   38  A    between atoms: _116  and  _117
REMARK   39  A    between atoms: _117  and  _118
REMARK   40  A    between atoms: _118  and  ZN_415
REMARK   41  A    between atoms: _121  and  _122
REMARK   42  A    between atoms: _127  and  _129
REMARK   43  A    between atoms: _129  and  _130
REMARK   44  A    between atoms: _129  and  _132
REMARK   45  A    between atoms: _132  and  _133
REMARK   46  A    between atoms: _139  and  _141
REMARK   47  A    between atoms: _141  and  _142
REMARK   48  A    between atoms: _141  and  _144
REMARK   49  A    between atoms: _144  and  _145
REMARK   50  A    between atoms: _145  and  _146
REMARK   51  A    between atoms: _146  and  _147
REMARK   52  A    between atoms: _156  and  _158
REMARK   53  A    between atoms: _158  and  _159
REMARK   54  A    between atoms: _158  and  _161
REMARK   55  A    between atoms: _161  and  _162
REMARK   56  A    between atoms: _167  and  _168
REMARK   57  A    between atoms: _170  and  _172
REMARK   58  A    between atoms: _172  and  _173
REMARK   59  A    between atoms: _172  and  _175
REMARK   60  A    between atoms: _175  and  _176
REMARK   61  A    between atoms: _178  and  _180
REMARK   62  A    between atoms: _180  and  _181
REMARK   63  A    between atoms: _180  and  _183
REMARK   64  A    between atoms: _183  and  _184
REMARK   65  A    between atoms: _189  and  _190
REMARK   66  A    between atoms: _192  and  _194
REMARK   67  A    between atoms: _194  and  _195
REMARK   68  A    between atoms: _194  and  _197
REMARK   69  A    between atoms: _197  and  _198
REMARK   70  A    between atoms: _201  and  _203
REMARK   71  A    between atoms: _203  and  _204
REMARK   72  A    between atoms: _203  and  _206
REMARK   73  A    between atoms: _206  and  _207
REMARK   74  A    between atoms: _210  and  _212
REMARK   75  A    between atoms: _212  and  _213
REMARK   76  A    between atoms: _212  and  _215
REMARK   77  A    between atoms: _215  and  _216
REMARK   78  A    between atoms: _216  and  _217
REMARK   79  A    between atoms: _217  and  _218
REMARK   80  A    between atoms: _227  and  _229
REMARK   81  A    between atoms: _229  and  _230
REMARK   82  A    between atoms: _232  and  _234
REMARK   83  A    between atoms: _234  and  _235
REMARK   84  A    between atoms: _234  and  _237
REMARK   85  A    between atoms: _237  and  _238
REMARK   86  A    between atoms: _241  and  _243
REMARK   87  A    between atoms: _243  and  _244
REMARK   88  A    between atoms: _243  and  _246
REMARK   89  A    between atoms: _246  and  _247
REMARK   90  A    between atoms: _250  and  _252
REMARK   91  A    between atoms: _252  and  _253
REMARK   92  A    between atoms: _252  and  _255
REMARK   93  A    between atoms: _255  and  _256
REMARK   94  A    between atoms: _262  and  _264
REMARK   95  A    between atoms: _264  and  _265
REMARK   96  A    between atoms: _264  and  _267
REMARK   97  A    between atoms: _267  and  _268
REMARK   98  A    between atoms: _268  and  _269
REMARK   99  A    between atoms: _269  and  _270
REMARK  100  A    between atoms: _279  and  _281
REMARK  101  A    between atoms: _281  and  _282
REMARK  102  A    between atoms: _281  and  _284
REMARK  103  A    between atoms: _284  and  _285
REMARK  104  A    between atoms: _295  and  _297
REMARK  105  A    between atoms: _297  and  _298
REMARK  106  A    between atoms: _297  and  _300
REMARK  107  A    between atoms: _300  and  _301
REMARK  108  A    between atoms: _306  and  _308
REMARK  109  A    between atoms: _308  and  _309
REMARK  110  A    between atoms: _308  and  _311
REMARK  111  A    between atoms: _311  and  _312
REMARK  112  A    between atoms: _316  and  ZN_415
REMARK  113  A    between atoms: _317  and  _319
REMARK  114  A    between atoms: _319  and  _320
REMARK  115  A    between atoms: _319  and  _322
REMARK  116  A    between atoms: _322  and  _323
REMARK  117  A    between atoms: _326  and  _328
REMARK  118  A    between atoms: _328  and  _329
REMARK  119  A    between atoms: _331  and  _333
REMARK  120  A    between atoms: _333  and  _334
REMARK  121  A    between atoms: _333  and  _336
REMARK  122  A    between atoms: _336  and  _337
REMARK  123  A    between atoms: _340  and  _342
REMARK  124  A    between atoms: _342  and  _343
REMARK  125  A    between atoms: _342  and  _345
REMARK  126  A    between atoms: _345  and  _346
REMARK  127  A    between atoms: _349  and  _351
REMARK  128  A    between atoms: _351  and  _352
REMARK  129  A    between atoms: _355  and  _357
REMARK  130  A    between atoms: _357  and  _358
REMARK  131  A    between atoms: _357  and  _360
REMARK  132  A    between atoms: _360  and  _361
REMARK  133  A    between atoms: _366  and  _367
REMARK  134  A    between atoms: _369  and  _371
REMARK  135  A    between atoms: _371  and  _372
REMARK  136  A    between atoms: _371  and  _374
REMARK  137  A    between atoms: _374  and  _375
REMARK  138  A    between atoms: _375  and  _376
REMARK  139  A    between atoms: _379  and  _381
REMARK  140  A    between atoms: _381  and  _382
REMARK  141  A    between atoms: _381  and  _384
REMARK  142  A    between atoms: _384  and  _385
REMARK  143  A    between atoms: _385  and  _386
REMARK  144  A    between atoms: _386  and  _387
REMARK  145  A    between atoms: _396  and  _398
REMARK  146  A    between atoms: _398  and  _399
REMARK  147  A    between atoms: _401  and  _403
REMARK  148  A    between atoms: _403  and  _404
REMARK  149  A    between atoms: _403  and  _406
REMARK  150  A    between atoms: _406  and  _407
REMARK  151  A    between atoms: _410  and  _412
REMARK  152  A    between atoms: _412  and  _413
REMARK                            x       y       z     vdW  Elec       q    Type
REMARK                         _______ _______ _______ _____ _____    ______ ____
ROOT
ATOM      1  O   HOH     1      27.966  61.189  19.275  0.00  0.00    +0.000 OA
ENDROOT
TORSDOF 0
REMARK  Name = ../refined-set-2016/3ddf/3ddf_pocket.pdb
REMARK  152 active torsions:
REMARK  status: ('A' for Active; 'I' for Inactive)
REMARK    1  A    between atoms: _1  and  _3
REMARK    2  A    between atoms: _14  and  _17
REMARK    3  A    between atoms: _17  and  _18
REMARK    4  A    between atoms: _25  and  _26
REMARK    5  A    between atoms: _33  and  _34
REMARK    6  A    between atoms: _39  and  _41
REMARK    7  A    between atoms: _41  and  _42
REMARK    8  A    between atoms: _44  and  _46
REMARK    9  A    between atoms: _46  and  _47
REMARK   10  A    between atoms: _46  and  _49
REMARK   11  A    between atoms: _49  and  _50
REMARK   12  A    between atoms: _60  and  _62
REMARK   13  A    between atoms: _62  and  _63
REMARK   14  A    between atoms: _62  and  _65
REMARK   15  A    between atoms: _65  and  _66
REMARK   16  A    between atoms: _69  and  _71
REMARK   17  A    between atoms: _71  and  _72
REMARK   18  A    between atoms: _71  and  _74
REMARK   19  A    between atoms: _74  and  _75
REMARK   20  A    between atoms: _80  and  _81
REMARK   21  A    between atoms: _83  and  _85
REMARK   22  A    between atoms: _85  and  _86
REMARK   23  A    between atoms: _85  and  _88
REMARK   24  A    between atoms: _88  and  _89
REMARK   25  A    between atoms: _89  and  _90
REMARK   26  A    between atoms: _93  and  _95
REMARK   27  A    between atoms: _95  and  _96
REMARK   28  A    between atoms: _95  and  _98
REMARK   29  A    between atoms: _98  and  _99
REMARK   30  A    between atoms: _99  and  _100
REMARK   31  A    between atoms: _102  and  _104
REMARK   32  A    between atoms: _104  and  _105
REMARK   33  A    between atoms: _104  and  _107
REMARK   34  A    between atoms: _107  and  _108
REMARK   35  A    between atoms: _111  and  _113
REMARK   36  A    between atoms: _113  and  _114
REMARK   37  A    between atoms: _113  and  _116
REMARK   38  A    between atoms: _116  and  _117
REMARK   39  A    between atoms: _117  and  _118
REMARK   40  A    between atoms: _118  and  ZN_415
REMARK   41  A    between atoms: _121  and  _122
REMARK   42  A    between atoms: _127  and  _129
REMARK   43  A    between atoms: _129  and  _130
REMARK   44  A    between atoms: _129  and  _132
REMARK   45  A    between atoms: _132  and  _133
REMARK   46  A    between atoms: _139  and  _141
REMARK   47  A    between atoms: _141  and  _142
REMARK   48  A    between atoms: _141  and  _144
REMARK   49  A    between atoms: _144  and  _145
REMARK   50  A    between atoms: _145  and  _146
REMARK   51  A    between atoms: _146  and  _147
REMARK   52  A    between atoms: _156  and  _158
REMARK   53  A    between atoms: _158  and  _159
REMARK   54  A    between atoms: _158  and  _161
REMARK   55  A    between atoms: _161  and  _162
REMARK   56  A    between atoms: _167  and  _168
REMARK   57  A    between atoms: _170  and  _172
REMARK   58  A    between atoms: _172  and  _173
REMARK   59  A    between atoms: _172  and  _175
REMARK   60  A    between atoms: _175  and  _176
REMARK   61  A    between atoms: _178  and  _180
REMARK   62  A    between atoms: _180  and  _181
REMARK   63  A    between atoms: _180  and  _183
REMARK   64  A    between atoms: _183  and  _184
REMARK   65  A    between atoms: _189  and  _190
REMARK   66  A    between atoms: _192  and  _194
REMARK   67  A    between atoms: _194  and  _195
REMARK   68  A    between atoms: _194  and  _197
REMARK   69  A    between atoms: _197  and  _198
REMARK   70  A    between atoms: _201  and  _203
REMARK   71  A    between atoms: _203  and  _204
REMARK   72  A    between atoms: _203  and  _206
REMARK   73  A    between atoms: _206  and  _207
REMARK   74  A    between atoms: _210  and  _212
REMARK   75  A    between atoms: _212  and  _213
REMARK   76  A    between atoms: _212  and  _215
REMARK   77  A    between atoms: _215  and  _216
REMARK   78  A    between atoms: _216  and  _217
REMARK   79  A    between atoms: _217  and  _218
REMARK   80  A    between atoms: _227  and  _229
REMARK   81  A    between atoms: _229  and  _230
REMARK   82  A    between atoms: _232  and  _234
REMARK   83  A    between atoms: _234  and  _235
REMARK   84  A    between atoms: _234  and  _237
REMARK   85  A    between atoms: _237  and  _238
REMARK   86  A    between atoms: _241  and  _243
REMARK   87  A    between atoms: _243  and  _244
REMARK   88  A    between atoms: _243  and  _246
REMARK   89  A    between atoms: _246  and  _247
REMARK   90  A    between atoms: _250  and  _252
REMARK   91  A    between atoms: _252  and  _253
REMARK   92  A    between atoms: _252  and  _255
REMARK   93  A    between atoms: _255  and  _256
REMARK   94  A    between atoms: _262  and  _264
REMARK   95  A    between atoms: _264  and  _265
REMARK   96  A    between atoms: _264  and  _267
REMARK   97  A    between atoms: _267  and  _268
REMARK   98  A    between atoms: _268  and  _269
REMARK   99  A    between atoms: _269  and  _270
REMARK  100  A    between atoms: _279  and  _281
REMARK  101  A    between atoms: _281  and  _282
REMARK  102  A    between atoms: _281  and  _284
REMARK  103  A    between atoms: _284  and  _285
REMARK  104  A    between atoms: _295  and  _297
REMARK  105  A    between atoms: _297  and  _298
REMARK  106  A    between atoms: _297  and  _300
REMARK  107  A    between atoms: _300  and  _301
REMARK  108  A    between atoms: _306  and  _308
REMARK  109  A    between atoms: _308  and  _309
REMARK  110  A    between atoms: _308  and  _311
REMARK  111  A    between atoms: _311  and  _312
REMARK  112  A    between atoms: _316  and  ZN_415
REMARK  113  A    between atoms: _317  and  _319
REMARK  114  A    between atoms: _319  and  _320
REMARK  115  A    between atoms: _319  and  _322
REMARK  116  A    between atoms: _322  and  _323
REMARK  117  A    between atoms: _326  and  _328
REMARK  118  A    between atoms: _328  and  _329
REMARK  119  A    between atoms: _331  and  _333
REMARK  120  A    between atoms: _333  and  _334
REMARK  121  A    between atoms: _333  and  _336
REMARK  122  A    between atoms: _336  and  _337
REMARK  123  A    between atoms: _340  and  _342
REMARK  124  A    between atoms: _342  and  _343
REMARK  125  A    between atoms: _342  and  _345
REMARK  126  A    between atoms: _345  and  _346
REMARK  127  A    between atoms: _349  and  _351
REMARK  128  A    between atoms: _351  and  _352
REMARK  129  A    between atoms: _355  and  _357
REMARK  130  A    between atoms: _357  and  _358
REMARK  131  A    between atoms: _357  and  _360
REMARK  132  A    between atoms: _360  and  _361
REMARK  133  A    between atoms: _366  and  _367
REMARK  134  A    between atoms: _369  and  _371
REMARK  135  A    between atoms: _371  and  _372
REMARK  136  A    between atoms: _371  and  _374
REMARK  137  A    between atoms: _374  and  _375
REMARK  138  A    between atoms: _375  and  _376
REMARK  139  A    between atoms: _379  and  _381
REMARK  140  A    between atoms: _381  and  _382
REMARK  141  A    between atoms: _381  and  _384
REMARK  142  A    between atoms: _384  and  _385
REMARK  143  A    between atoms: _385  and  _386
REMARK  144  A    between atoms: _386  and  _387
REMARK  145  A    between atoms: _396  and  _398
REMARK  146  A    between atoms: _398  and  _399
REMARK  147  A    between atoms: _401  and  _403
REMARK  148  A    between atoms: _403  and  _404
REMARK  149  A    between atoms: _403  and  _406
REMARK  150  A    between atoms: _406  and  _407
REMARK  151  A    between atoms: _410  and  _412
REMARK  152  A    between atoms: _412  and  _413
REMARK                            x       y       z     vdW  Elec       q    Type
REMARK                         _______ _______ _______ _____ _____    ______ ____
ROOT
ATOM      1  O   HOH     1      31.868  65.449  18.628  0.00  0.00    +0.000 OA
ENDROOT
TORSDOF 0
REMARK  Name = ../refined-set-2016/3ddf/3ddf_pocket.pdb
REMARK  152 active torsions:
REMARK  status: ('A' for Active; 'I' for Inactive)
REMARK    1  A    between atoms: _1  and  _3
REMARK    2  A    between atoms: _14  and  _17
REMARK    3  A    between atoms: _17  and  _18
REMARK    4  A    between atoms: _25  and  _26
REMARK    5  A    between atoms: _33  and  _34
REMARK    6  A    between atoms: _39  and  _41
REMARK    7  A    between atoms: _41  and  _42
REMARK    8  A    between atoms: _44  and  _46
REMARK    9  A    between atoms: _46  and  _47
REMARK   10  A    between atoms: _46  and  _49
REMARK   11  A    between atoms: _49  and  _50
REMARK   12  A    between atoms: _60  and  _62
REMARK   13  A    between atoms: _62  and  _63
REMARK   14  A    between atoms: _62  and  _65
REMARK   15  A    between atoms: _65  and  _66
REMARK   16  A    between atoms: _69  and  _71
REMARK   17  A    between atoms: _71  and  _72
REMARK   18  A    between atoms: _71  and  _74
REMARK   19  A    between atoms: _74  and  _75
REMARK   20  A    between atoms: _80  and  _81
REMARK   21  A    between atoms: _83  and  _85
REMARK   22  A    between atoms: _85  and  _86
REMARK   23  A    between atoms: _85  and  _88
REMARK   24  A    between atoms: _88  and  _89
REMARK   25  A    between atoms: _89  and  _90
REMARK   26  A    between atoms: _93  and  _95
REMARK   27  A    between atoms: _95  and  _96
REMARK   28  A    between atoms: _95  and  _98
REMARK   29  A    between atoms: _98  and  _99
REMARK   30  A    between atoms: _99  and  _100
REMARK   31  A    between atoms: _102  and  _104
REMARK   32  A    between atoms: _104  and  _105
REMARK   33  A    between atoms: _104  and  _107
REMARK   34  A    between atoms: _107  and  _108
REMARK   35  A    between atoms: _111  and  _113
REMARK   36  A    between atoms: _113  and  _114
REMARK   37  A    between atoms: _113  and  _116
REMARK   38  A    between atoms: _116  and  _117
REMARK   39  A    between atoms: _117  and  _118
REMARK   40  A    between atoms: _118  and  ZN_415
REMARK   41  A    between atoms: _121  and  _122
REMARK   42  A    between atoms: _127  and  _129
REMARK   43  A    between atoms: _129  and  _130
REMARK   44  A    between atoms: _129  and  _132
REMARK   45  A    between atoms: _132  and  _133
REMARK   46  A    between atoms: _139  and  _141
REMARK   47  A    between atoms: _141  and  _142
REMARK   48  A    between atoms: _141  and  _144
REMARK   49  A    between atoms: _144  and  _145
REMARK   50  A    between atoms: _145  and  _146
REMARK   51  A    between atoms: _146  and  _147
REMARK   52  A    between atoms: _156  and  _158
REMARK   53  A    between atoms: _158  and  _159
REMARK   54  A    between atoms: _158  and  _161
REMARK   55  A    between atoms: _161  and  _162
REMARK   56  A    between atoms: _167  and  _168
REMARK   57  A    between atoms: _170  and  _172
REMARK   58  A    between atoms: _172  and  _173
REMARK   59  A    between atoms: _172  and  _175
REMARK   60  A    between atoms: _175  and  _176
REMARK   61  A    between atoms: _178  and  _180
REMARK   62  A    between atoms: _180  and  _181
REMARK   63  A    between atoms: _180  and  _183
REMARK   64  A    between atoms: _183  and  _184
REMARK   65  A    between atoms: _189  and  _190
REMARK   66  A    between atoms: _192  and  _194
REMARK   67  A    between atoms: _194  and  _195
REMARK   68  A    between atoms: _194  and  _197
REMARK   69  A    between atoms: _197  and  _198
REMARK   70  A    between atoms: _201  and  _203
REMARK   71  A    between atoms: _203  and  _204
REMARK   72  A    between atoms: _203  and  _206
REMARK   73  A    between atoms: _206  and  _207
REMARK   74  A    between atoms: _210  and  _212
REMARK   75  A    between atoms: _212  and  _213
REMARK   76  A    between atoms: _212  and  _215
REMARK   77  A    between atoms: _215  and  _216
REMARK   78  A    between atoms: _216  and  _217
REMARK   79  A    between atoms: _217  and  _218
REMARK   80  A    between atoms: _227  and  _229
REMARK   81  A    between atoms: _229  and  _230
REMARK   82  A    between atoms: _232  and  _234
REMARK   83  A    between atoms: _234  and  _235
REMARK   84  A    between atoms: _234  and  _237
REMARK   85  A    between atoms: _237  and  _238
REMARK   86  A    between atoms: _241  and  _243
REMARK   87  A    between atoms: _243  and  _244
REMARK   88  A    between atoms: _243  and  _246
REMARK   89  A    between atoms: _246  and  _247
REMARK   90  A    between atoms: _250  and  _252
REMARK   91  A    between atoms: _252  and  _253
REMARK   92  A    between atoms: _252  and  _255
REMARK   93  A    between atoms: _255  and  _256
REMARK   94  A    between atoms: _262  and  _264
REMARK   95  A    between atoms: _264  and  _265
REMARK   96  A    between atoms: _264  and  _267
REMARK   97  A    between atoms: _267  and  _268
REMARK   98  A    between atoms: _268  and  _269
REMARK   99  A    between atoms: _269  and  _270
REMARK  100  A    between atoms: _279  and  _281
REMARK  101  A    between atoms: _281  and  _282
REMARK  102  A    between atoms: _281  and  _284
REMARK  103  A    between atoms: _284  and  _285
REMARK  104  A    between atoms: _295  and  _297
REMARK  105  A    between atoms: _297  and  _298
REMARK  106  A    between atoms: _297  and  _300
REMARK  107  A    between atoms: _300  and  _301
REMARK  108  A    between atoms: _306  and  _308
REMARK  109  A    between atoms: _308  and  _309
REMARK  110  A    between atoms: _308  and  _311
REMARK  111  A    between atoms: _311  and  _312
REMARK  112  A    between atoms: _316  and  ZN_415
REMARK  113  A    between atoms: _317  and  _319
REMARK  114  A    between atoms: _319  and  _320
REMARK  115  A    between atoms: _319  and  _322
REMARK  116  A    between atoms: _322  and  _323
REMARK  117  A    between atoms: _326  and  _328
REMARK  118  A    between atoms: _328  and  _329
REMARK  119  A    between atoms: _331  and  _333
REMARK  120  A    between atoms: _333  and  _334
REMARK  121  A    between atoms: _333  and  _336
REMARK  122  A    between atoms: _336  and  _337
REMARK  123  A    between atoms: _340  and  _342
REMARK  124  A    between atoms: _342  and  _343
REMARK  125  A    between atoms: _342  and  _345
REMARK  126  A    between atoms: _345  and  _346
REMARK  127  A    between atoms: _349  and  _351
REMARK  128  A    between atoms: _351  and  _352
REMARK  129  A    between atoms: _355  and  _357
REMARK  130  A    between atoms: _357  and  _358
REMARK  131  A    between atoms: _357  and  _360
REMARK  132  A    between atoms: _360  and  _361
REMARK  133  A    between atoms: _366  and  _367
REMARK  134  A    between atoms: _369  and  _371
REMARK  135  A    between atoms: _371  and  _372
REMARK  136  A    between atoms: _371  and  _374
REMARK  137  A    between atoms: _374  and  _375
REMARK  138  A    between atoms: _375  and  _376
REMARK  139  A    between atoms: _379  and  _381
REMARK  140  A    between atoms: _381  and  _382
REMARK  141  A    between atoms: _381  and  _384
REMARK  142  A    between atoms: _384  and  _385
REMARK  143  A    between atoms: _385  and  _386
REMARK  144  A    between atoms: _386  and  _387
REMARK  145  A    between atoms: _396  and  _398
REMARK  146  A    between atoms: _398  and  _399
REMARK  147  A    between atoms: _401  and  _403
REMARK  148  A    between atoms: _403  and  _404
REMARK  149  A    between atoms: _403  and  _406
REMARK  150  A    between atoms: _406  and  _407
REMARK  151  A    between atoms: _410  and  _412
REMARK  152  A    between atoms: _412  and  _413
REMARK                            x       y       z     vdW  Elec       q    Type
REMARK                         _______ _______ _______ _____ _____    ______ ____
ROOT
ATOM      1  O   HOH     1      35.202  71.173  15.814  0.00  0.00    +0.000 OA
ENDROOT
TORSDOF 0
REMARK  Name = ../refined-set-2016/3ddf/3ddf_pocket.pdb
REMARK  152 active torsions:
REMARK  status: ('A' for Active; 'I' for Inactive)
REMARK    1  A    between atoms: _1  and  _3
REMARK    2  A    between atoms: _14  and  _17
REMARK    3  A    between atoms: _17  and  _18
REMARK    4  A    between atoms: _25  and  _26
REMARK    5  A    between atoms: _33  and  _34
REMARK    6  A    between atoms: _39  and  _41
REMARK    7  A    between atoms: _41  and  _42
REMARK    8  A    between atoms: _44  and  _46
REMARK    9  A    between atoms: _46  and  _47
REMARK   10  A    between atoms: _46  and  _49
REMARK   11  A    between atoms: _49  and  _50
REMARK   12  A    between atoms: _60  and  _62
REMARK   13  A    between atoms: _62  and  _63
REMARK   14  A    between atoms: _62  and  _65
REMARK   15  A    between atoms: _65  and  _66
REMARK   16  A    between atoms: _69  and  _71
REMARK   17  A    between atoms: _71  and  _72
REMARK   18  A    between atoms: _71  and  _74
REMARK   19  A    between atoms: _74  and  _75
REMARK   20  A    between atoms: _80  and  _81
REMARK   21  A    between atoms: _83  and  _85
REMARK   22  A    between atoms: _85  and  _86
REMARK   23  A    between atoms: _85  and  _88
REMARK   24  A    between atoms: _88  and  _89
REMARK   25  A    between atoms: _89  and  _90
REMARK   26  A    between atoms: _93  and  _95
REMARK   27  A    between atoms: _95  and  _96
REMARK   28  A    between atoms: _95  and  _98
REMARK   29  A    between atoms: _98  and  _99
REMARK   30  A    between atoms: _99  and  _100
REMARK   31  A    between atoms: _102  and  _104
REMARK   32  A    between atoms: _104  and  _105
REMARK   33  A    between atoms: _104  and  _107
REMARK   34  A    between atoms: _107  and  _108
REMARK   35  A    between atoms: _111  and  _113
REMARK   36  A    between atoms: _113  and  _114
REMARK   37  A    between atoms: _113  and  _116
REMARK   38  A    between atoms: _116  and  _117
REMARK   39  A    between atoms: _117  and  _118
REMARK   40  A    between atoms: _118  and  ZN_415
REMARK   41  A    between atoms: _121  and  _122
REMARK   42  A    between atoms: _127  and  _129
REMARK   43  A    between atoms: _129  and  _130
REMARK   44  A    between atoms: _129  and  _132
REMARK   45  A    between atoms: _132  and  _133
REMARK   46  A    between atoms: _139  and  _141
REMARK   47  A    between atoms: _141  and  _142
REMARK   48  A    between atoms: _141  and  _144
REMARK   49  A    between atoms: _144  and  _145
REMARK   50  A    between atoms: _145  and  _146
REMARK   51  A    between atoms: _146  and  _147
REMARK   52  A    between atoms: _156  and  _158
REMARK   53  A    between atoms: _158  and  _159
REMARK   54  A    between atoms: _158  and  _161
REMARK   55  A    between atoms: _161  and  _162
REMARK   56  A    between atoms: _167  and  _168
REMARK   57  A    between atoms: _170  and  _172
REMARK   58  A    between atoms: _172  and  _173
REMARK   59  A    between atoms: _172  and  _175
REMARK   60  A    between atoms: _175  and  _176
REMARK   61  A    between atoms: _178  and  _180
REMARK   62  A    between atoms: _180  and  _181
REMARK   63  A    between atoms: _180  and  _183
REMARK   64  A    between atoms: _183  and  _184
REMARK   65  A    between atoms: _189  and  _190
REMARK   66  A    between atoms: _192  and  _194
REMARK   67  A    between atoms: _194  and  _195
REMARK   68  A    between atoms: _194  and  _197
REMARK   69  A    between atoms: _197  and  _198
REMARK   70  A    between atoms: _201  and  _203
REMARK   71  A    between atoms: _203  and  _204
REMARK   72  A    between atoms: _203  and  _206
REMARK   73  A    between atoms: _206  and  _207
REMARK   74  A    between atoms: _210  and  _212
REMARK   75  A    between atoms: _212  and  _213
REMARK   76  A    between atoms: _212  and  _215
REMARK   77  A    between atoms: _215  and  _216
REMARK   78  A    between atoms: _216  and  _217
REMARK   79  A    between atoms: _217  and  _218
REMARK   80  A    between atoms: _227  and  _229
REMARK   81  A    between atoms: _229  and  _230
REMARK   82  A    between atoms: _232  and  _234
REMARK   83  A    between atoms: _234  and  _235
REMARK   84  A    between atoms: _234  and  _237
REMARK   85  A    between atoms: _237  and  _238
REMARK   86  A    between atoms: _241  and  _243
REMARK   87  A    between atoms: _243  and  _244
REMARK   88  A    between atoms: _243  and  _246
REMARK   89  A    between atoms: _246  and  _247
REMARK   90  A    between atoms: _250  and  _252
REMARK   91  A    between atoms: _252  and  _253
REMARK   92  A    between atoms: _252  and  _255
REMARK   93  A    between atoms: _255  and  _256
REMARK   94  A    between atoms: _262  and  _264
REMARK   95  A    between atoms: _264  and  _265
REMARK   96  A    between atoms: _264  and  _267
REMARK   97  A    between atoms: _267  and  _268
REMARK   98  A    between atoms: _268  and  _269
REMARK   99  A    between atoms: _269  and  _270
REMARK  100  A    between atoms: _279  and  _281
REMARK  101  A    between atoms: _281  and  _282
REMARK  102  A    between atoms: _281  and  _284
REMARK  103  A    between atoms: _284  and  _285
REMARK  104  A    between atoms: _295  and  _297
REMARK  105  A    between atoms: _297  and  _298
REMARK  106  A    between atoms: _297  and  _300
REMARK  107  A    between atoms: _300  and  _301
REMARK  108  A    between atoms: _306  and  _308
REMARK  109  A    between atoms: _308  and  _309
REMARK  110  A    between atoms: _308  and  _311
REMARK  111  A    between atoms: _311  and  _312
REMARK  112  A    between atoms: _316  and  ZN_415
REMARK  113  A    between atoms: _317  and  _319
REMARK  114  A    between atoms: _319  and  _320
REMARK  115  A    between atoms: _319  and  _322
REMARK  116  A    between atoms: _322  and  _323
REMARK  117  A    between atoms: _326  and  _328
REMARK  118  A    between atoms: _328  and  _329
REMARK  119  A    between atoms: _331  and  _333
REMARK  120  A    between atoms: _333  and  _334
REMARK  121  A    between atoms: _333  and  _336
REMARK  122  A    between atoms: _336  and  _337
REMARK  123  A    between atoms: _340  and  _342
REMARK  124  A    between atoms: _342  and  _343
REMARK  125  A    between atoms: _342  and  _345
REMARK  126  A    between atoms: _345  and  _346
REMARK  127  A    between atoms: _349  and  _351
REMARK  128  A    between atoms: _351  and  _352
REMARK  129  A    between atoms: _355  and  _357
REMARK  130  A    between atoms: _357  and  _358
REMARK  131  A    between atoms: _357  and  _360
REMARK  132  A    between atoms: _360  and  _361
REMARK  133  A    between atoms: _366  and  _367
REMARK  134  A    between atoms: _369  and  _371
REMARK  135  A    between atoms: _371  and  _372
REMARK  136  A    between atoms: _371  and  _374
REMARK  137  A    between atoms: _374  and  _375
REMARK  138  A    between atoms: _375  and  _376
REMARK  139  A    between atoms: _379  and  _381
REMARK  140  A    between atoms: _381  and  _382
REMARK  141  A    between atoms: _381  and  _384
REMARK  142  A    between atoms: _384  and  _385
REMARK  143  A    between atoms: _385  and  _386
REMARK  144  A    between atoms: _386  and  _387
REMARK  145  A    between atoms: _396  and  _398
REMARK  146  A    between atoms: _398  and  _399
REMARK  147  A    between atoms: _401  and  _403
REMARK  148  A    between atoms: _403  and  _404
REMARK  149  A    between atoms: _403  and  _406
REMARK  150  A    between atoms: _406  and  _407
REMARK  151  A    between atoms: _410  and  _412
REMARK  152  A    between atoms: _412  and  _413
REMARK                            x       y       z     vdW  Elec       q    Type
REMARK                         _______ _______ _______ _____ _____    ______ ____
ROOT
ATOM      1  O   HOH     1      34.621  70.492  13.105  0.00  0.00    +0.000 OA
ENDROOT
TORSDOF 0
REMARK  Name = ../refined-set-2016/3ddf/3ddf_pocket.pdb
REMARK  152 active torsions:
REMARK  status: ('A' for Active; 'I' for Inactive)
REMARK    1  A    between atoms: _1  and  _3
REMARK    2  A    between atoms: _14  and  _17
REMARK    3  A    between atoms: _17  and  _18
REMARK    4  A    between atoms: _25  and  _26
REMARK    5  A    between atoms: _33  and  _34
REMARK    6  A    between atoms: _39  and  _41
REMARK    7  A    between atoms: _41  and  _42
REMARK    8  A    between atoms: _44  and  _46
REMARK    9  A    between atoms: _46  and  _47
REMARK   10  A    between atoms: _46  and  _49
REMARK   11  A    between atoms: _49  and  _50
REMARK   12  A    between atoms: _60  and  _62
REMARK   13  A    between atoms: _62  and  _63
REMARK   14  A    between atoms: _62  and  _65
REMARK   15  A    between atoms: _65  and  _66
REMARK   16  A    between atoms: _69  and  _71
REMARK   17  A    between atoms: _71  and  _72
REMARK   18  A    between atoms: _71  and  _74
REMARK   19  A    between atoms: _74  and  _75
REMARK   20  A    between atoms: _80  and  _81
REMARK   21  A    between atoms: _83  and  _85
REMARK   22  A    between atoms: _85  and  _86
REMARK   23  A    between atoms: _85  and  _88
REMARK   24  A    between atoms: _88  and  _89
REMARK   25  A    between atoms: _89  and  _90
REMARK   26  A    between atoms: _93  and  _95
REMARK   27  A    between atoms: _95  and  _96
REMARK   28  A    between atoms: _95  and  _98
REMARK   29  A    between atoms: _98  and  _99
REMARK   30  A    between atoms: _99  and  _100
REMARK   31  A    between atoms: _102  and  _104
REMARK   32  A    between atoms: _104  and  _105
REMARK   33  A    between atoms: _104  and  _107
REMARK   34  A    between atoms: _107  and  _108
REMARK   35  A    between atoms: _111  and  _113
REMARK   36  A    between atoms: _113  and  _114
REMARK   37  A    between atoms: _113  and  _116
REMARK   38  A    between atoms: _116  and  _117
REMARK   39  A    between atoms: _117  and  _118
REMARK   40  A    between atoms: _118  and  ZN_415
REMARK   41  A    between atoms: _121  and  _122
REMARK   42  A    between atoms: _127  and  _129
REMARK   43  A    between atoms: _129  and  _130
REMARK   44  A    between atoms: _129  and  _132
REMARK   45  A    between atoms: _132  and  _133
REMARK   46  A    between atoms: _139  and  _141
REMARK   47  A    between atoms: _141  and  _142
REMARK   48  A    between atoms: _141  and  _144
REMARK   49  A    between atoms: _144  and  _145
REMARK   50  A    between atoms: _145  and  _146
REMARK   51  A    between atoms: _146  and  _147
REMARK   52  A    between atoms: _156  and  _158
REMARK   53  A    between atoms: _158  and  _159
REMARK   54  A    between atoms: _158  and  _161
REMARK   55  A    between atoms: _161  and  _162
REMARK   56  A    between atoms: _167  and  _168
REMARK   57  A    between atoms: _170  and  _172
REMARK   58  A    between atoms: _172  and  _173
REMARK   59  A    between atoms: _172  and  _175
REMARK   60  A    between atoms: _175  and  _176
REMARK   61  A    between atoms: _178  and  _180
REMARK   62  A    between atoms: _180  and  _181
REMARK   63  A    between atoms: _180  and  _183
REMARK   64  A    between atoms: _183  and  _184
REMARK   65  A    between atoms: _189  and  _190
REMARK   66  A    between atoms: _192  and  _194
REMARK   67  A    between atoms: _194  and  _195
REMARK   68  A    between atoms: _194  and  _197
REMARK   69  A    between atoms: _197  and  _198
REMARK   70  A    between atoms: _201  and  _203
REMARK   71  A    between atoms: _203  and  _204
REMARK   72  A    between atoms: _203  and  _206
REMARK   73  A    between atoms: _206  and  _207
REMARK   74  A    between atoms: _210  and  _212
REMARK   75  A    between atoms: _212  and  _213
REMARK   76  A    between atoms: _212  and  _215
REMARK   77  A    between atoms: _215  and  _216
REMARK   78  A    between atoms: _216  and  _217
REMARK   79  A    between atoms: _217  and  _218
REMARK   80  A    between atoms: _227  and  _229
REMARK   81  A    between atoms: _229  and  _230
REMARK   82  A    between atoms: _232  and  _234
REMARK   83  A    between atoms: _234  and  _235
REMARK   84  A    between atoms: _234  and  _237
REMARK   85  A    between atoms: _237  and  _238
REMARK   86  A    between atoms: _241  and  _243
REMARK   87  A    between atoms: _243  and  _244
REMARK   88  A    between atoms: _243  and  _246
REMARK   89  A    between atoms: _246  and  _247
REMARK   90  A    between atoms: _250  and  _252
REMARK   91  A    between atoms: _252  and  _253
REMARK   92  A    between atoms: _252  and  _255
REMARK   93  A    between atoms: _255  and  _256
REMARK   94  A    between atoms: _262  and  _264
REMARK   95  A    between atoms: _264  and  _265
REMARK   96  A    between atoms: _264  and  _267
REMARK   97  A    between atoms: _267  and  _268
REMARK   98  A    between atoms: _268  and  _269
REMARK   99  A    between atoms: _269  and  _270
REMARK  100  A    between atoms: _279  and  _281
REMARK  101  A    between atoms: _281  and  _282
REMARK  102  A    between atoms: _281  and  _284
REMARK  103  A    between atoms: _284  and  _285
REMARK  104  A    between atoms: _295  and  _297
REMARK  105  A    between atoms: _297  and  _298
REMARK  106  A    between atoms: _297  and  _300
REMARK  107  A    between atoms: _300  and  _301
REMARK  108  A    between atoms: _306  and  _308
REMARK  109  A    between atoms: _308  and  _309
REMARK  110  A    between atoms: _308  and  _311
REMARK  111  A    between atoms: _311  and  _312
REMARK  112  A    between atoms: _316  and  ZN_415
REMARK  113  A    between atoms: _317  and  _319
REMARK  114  A    between atoms: _319  and  _320
REMARK  115  A    between atoms: _319  and  _322
REMARK  116  A    between atoms: _322  and  _323
REMARK  117  A    between atoms: _326  and  _328
REMARK  118  A    between atoms: _328  and  _329
REMARK  119  A    between atoms: _331  and  _333
REMARK  120  A    between atoms: _333  and  _334
REMARK  121  A    between atoms: _333  and  _336
REMARK  122  A    between atoms: _336  and  _337
REMARK  123  A    between atoms: _340  and  _342
REMARK  124  A    between atoms: _342  and  _343
REMARK  125  A    between atoms: _342  and  _345
REMARK  126  A    between atoms: _345  and  _346
REMARK  127  A    between atoms: _349  and  _351
REMARK  128  A    between atoms: _351  and  _352
REMARK  129  A    between atoms: _355  and  _357
REMARK  130  A    between atoms: _357  and  _358
REMARK  131  A    between atoms: _357  and  _360
REMARK  132  A    between atoms: _360  and  _361
REMARK  133  A    between atoms: _366  and  _367
REMARK  134  A    between atoms: _369  and  _371
REMARK  135  A    between atoms: _371  and  _372
REMARK  136  A    between atoms: _371  and  _374
REMARK  137  A    between atoms: _374  and  _375
REMARK  138  A    between atoms: _375  and  _376
REMARK  139  A    between atoms: _379  and  _381
REMARK  140  A    between atoms: _381  and  _382
REMARK  141  A    between atoms: _381  and  _384
REMARK  142  A    between atoms: _384  and  _385
REMARK  143  A    between atoms: _385  and  _386
REMARK  144  A    between atoms: _386  and  _387
REMARK  145  A    between atoms: _396  and  _398
REMARK  146  A    between atoms: _398  and  _399
REMARK  147  A    between atoms: _401  and  _403
REMARK  148  A    between atoms: _403  and  _404
REMARK  149  A    between atoms: _403  and  _406
REMARK  150  A    between atoms: _406  and  _407
REMARK  151  A    between atoms: _410  and  _412
REMARK  152  A    between atoms: _412  and  _413
REMARK                            x       y       z     vdW  Elec       q    Type
REMARK                         _______ _______ _______ _____ _____    ______ ____
ROOT
ATOM      1  O   HOH     1      34.307  67.898  12.383  0.00  0.00    +0.000 OA
ENDROOT
TORSDOF 0
REMARK  Name = ../refined-set-2016/3ddf/3ddf_pocket.pdb
REMARK  152 active torsions:
REMARK  status: ('A' for Active; 'I' for Inactive)
REMARK    1  A    between atoms: _1  and  _3
REMARK    2  A    between atoms: _14  and  _17
REMARK    3  A    between atoms: _17  and  _18
REMARK    4  A    between atoms: _25  and  _26
REMARK    5  A    between atoms: _33  and  _34
REMARK    6  A    between atoms: _39  and  _41
REMARK    7  A    between atoms: _41  and  _42
REMARK    8  A    between atoms: _44  and  _46
REMARK    9  A    between atoms: _46  and  _47
REMARK   10  A    between atoms: _46  and  _49
REMARK   11  A    between atoms: _49  and  _50
REMARK   12  A    between atoms: _60  and  _62
REMARK   13  A    between atoms: _62  and  _63
REMARK   14  A    between atoms: _62  and  _65
REMARK   15  A    between atoms: _65  and  _66
REMARK   16  A    between atoms: _69  and  _71
REMARK   17  A    between atoms: _71  and  _72
REMARK   18  A    between atoms: _71  and  _74
REMARK   19  A    between atoms: _74  and  _75
REMARK   20  A    between atoms: _80  and  _81
REMARK   21  A    between atoms: _83  and  _85
REMARK   22  A    between atoms: _85  and  _86
REMARK   23  A    between atoms: _85  and  _88
REMARK   24  A    between atoms: _88  and  _89
REMARK   25  A    between atoms: _89  and  _90
REMARK   26  A    between atoms: _93  and  _95
REMARK   27  A    between atoms: _95  and  _96
REMARK   28  A    between atoms: _95  and  _98
REMARK   29  A    between atoms: _98  and  _99
REMARK   30  A    between atoms: _99  and  _100
REMARK   31  A    between atoms: _102  and  _104
REMARK   32  A    between atoms: _104  and  _105
REMARK   33  A    between atoms: _104  and  _107
REMARK   34  A    between atoms: _107  and  _108
REMARK   35  A    between atoms: _111  and  _113
REMARK   36  A    between atoms: _113  and  _114
REMARK   37  A    between atoms: _113  and  _116
REMARK   38  A    between atoms: _116  and  _117
REMARK   39  A    between atoms: _117  and  _118
REMARK   40  A    between atoms: _118  and  ZN_415
REMARK   41  A    between atoms: _121  and  _122
REMARK   42  A    between atoms: _127  and  _129
REMARK   43  A    between atoms: _129  and  _130
REMARK   44  A    between atoms: _129  and  _132
REMARK   45  A    between atoms: _132  and  _133
REMARK   46  A    between atoms: _139  and  _141
REMARK   47  A    between atoms: _141  and  _142
REMARK   48  A    between atoms: _141  and  _144
REMARK   49  A    between atoms: _144  and  _145
REMARK   50  A    between atoms: _145  and  _146
REMARK   51  A    between atoms: _146  and  _147
REMARK   52  A    between atoms: _156  and  _158
REMARK   53  A    between atoms: _158  and  _159
REMARK   54  A    between atoms: _158  and  _161
REMARK   55  A    between atoms: _161  and  _162
REMARK   56  A    between atoms: _167  and  _168
REMARK   57  A    between atoms: _170  and  _172
REMARK   58  A    between atoms: _172  and  _173
REMARK   59  A    between atoms: _172  and  _175
REMARK   60  A    between atoms: _175  and  _176
REMARK   61  A    between atoms: _178  and  _180
REMARK   62  A    between atoms: _180  and  _181
REMARK   63  A    between atoms: _180  and  _183
REMARK   64  A    between atoms: _183  and  _184
REMARK   65  A    between atoms: _189  and  _190
REMARK   66  A    between atoms: _192  and  _194
REMARK   67  A    between atoms: _194  and  _195
REMARK   68  A    between atoms: _194  and  _197
REMARK   69  A    between atoms: _197  and  _198
REMARK   70  A    between atoms: _201  and  _203
REMARK   71  A    between atoms: _203  and  _204
REMARK   72  A    between atoms: _203  and  _206
REMARK   73  A    between atoms: _206  and  _207
REMARK   74  A    between atoms: _210  and  _212
REMARK   75  A    between atoms: _212  and  _213
REMARK   76  A    between atoms: _212  and  _215
REMARK   77  A    between atoms: _215  and  _216
REMARK   78  A    between atoms: _216  and  _217
REMARK   79  A    between atoms: _217  and  _218
REMARK   80  A    between atoms: _227  and  _229
REMARK   81  A    between atoms: _229  and  _230
REMARK   82  A    between atoms: _232  and  _234
REMARK   83  A    between atoms: _234  and  _235
REMARK   84  A    between atoms: _234  and  _237
REMARK   85  A    between atoms: _237  and  _238
REMARK   86  A    between atoms: _241  and  _243
REMARK   87  A    between atoms: _243  and  _244
REMARK   88  A    between atoms: _243  and  _246
REMARK   89  A    between atoms: _246  and  _247
REMARK   90  A    between atoms: _250  and  _252
REMARK   91  A    between atoms: _252  and  _253
REMARK   92  A    between atoms: _252  and  _255
REMARK   93  A    between atoms: _255  and  _256
REMARK   94  A    between atoms: _262  and  _264
REMARK   95  A    between atoms: _264  and  _265
REMARK   96  A    between atoms: _264  and  _267
REMARK   97  A    between atoms: _267  and  _268
REMARK   98  A    between atoms: _268  and  _269
REMARK   99  A    between atoms: _269  and  _270
REMARK  100  A    between atoms: _279  and  _281
REMARK  101  A    between atoms: _281  and  _282
REMARK  102  A    between atoms: _281  and  _284
REMARK  103  A    between atoms: _284  and  _285
REMARK  104  A    between atoms: _295  and  _297
REMARK  105  A    between atoms: _297  and  _298
REMARK  106  A    between atoms: _297  and  _300
REMARK  107  A    between atoms: _300  and  _301
REMARK  108  A    between atoms: _306  and  _308
REMARK  109  A    between atoms: _308  and  _309
REMARK  110  A    between atoms: _308  and  _311
REMARK  111  A    between atoms: _311  and  _312
REMARK  112  A    between atoms: _316  and  ZN_415
REMARK  113  A    between atoms: _317  and  _319
REMARK  114  A    between atoms: _319  and  _320
REMARK  115  A    between atoms: _319  and  _322
REMARK  116  A    between atoms: _322  and  _323
REMARK  117  A    between atoms: _326  and  _328
REMARK  118  A    between atoms: _328  and  _329
REMARK  119  A    between atoms: _331  and  _333
REMARK  120  A    between atoms: _333  and  _334
REMARK  121  A    between atoms: _333  and  _336
REMARK  122  A    between atoms: _336  and  _337
REMARK  123  A    between atoms: _340  and  _342
REMARK  124  A    between atoms: _342  and  _343
REMARK  125  A    between atoms: _342  and  _345
REMARK  126  A    between atoms: _345  and  _346
REMARK  127  A    between atoms: _349  and  _351
REMARK  128  A    between atoms: _351  and  _352
REMARK  129  A    between atoms: _355  and  _357
REMARK  130  A    between atoms: _357  and  _358
REMARK  131  A    between atoms: _357  and  _360
REMARK  132  A    between atoms: _360  and  _361
REMARK  133  A    between atoms: _366  and  _367
REMARK  134  A    between atoms: _369  and  _371
REMARK  135  A    between atoms: _371  and  _372
REMARK  136  A    between atoms: _371  and  _374
REMARK  137  A    between atoms: _374  and  _375
REMARK  138  A    between atoms: _375  and  _376
REMARK  139  A    between atoms: _379  and  _381
REMARK  140  A    between atoms: _381  and  _382
REMARK  141  A    between atoms: _381  and  _384
REMARK  142  A    between atoms: _384  and  _385
REMARK  143  A    between atoms: _385  and  _386
REMARK  144  A    between atoms: _386  and  _387
REMARK  145  A    between atoms: _396  and  _398
REMARK  146  A    between atoms: _398  and  _399
REMARK  147  A    between atoms: _401  and  _403
REMARK  148  A    between atoms: _403  and  _404
REMARK  149  A    between atoms: _403  and  _406
REMARK  150  A    between atoms: _406  and  _407
REMARK  151  A    between atoms: _410  and  _412
REMARK  152  A    between atoms: _412  and  _413
REMARK                            x       y       z     vdW  Elec       q    Type
REMARK                         _______ _______ _______ _____ _____    ______ ____
ROOT
ATOM      1  O   HOH     1      31.966  71.493  13.673  0.00  0.00    +0.000 OA
ENDROOT
TORSDOF 0
REMARK  Name = ../refined-set-2016/3ddf/3ddf_pocket.pdb
REMARK  152 active torsions:
REMARK  status: ('A' for Active; 'I' for Inactive)
REMARK    1  A    between atoms: _1  and  _3
REMARK    2  A    between atoms: _14  and  _17
REMARK    3  A    between atoms: _17  and  _18
REMARK    4  A    between atoms: _25  and  _26
REMARK    5  A    between atoms: _33  and  _34
REMARK    6  A    between atoms: _39  and  _41
REMARK    7  A    between atoms: _41  and  _42
REMARK    8  A    between atoms: _44  and  _46
REMARK    9  A    between atoms: _46  and  _47
REMARK   10  A    between atoms: _46  and  _49
REMARK   11  A    between atoms: _49  and  _50
REMARK   12  A    between atoms: _60  and  _62
REMARK   13  A    between atoms: _62  and  _63
REMARK   14  A    between atoms: _62  and  _65
REMARK   15  A    between atoms: _65  and  _66
REMARK   16  A    between atoms: _69  and  _71
REMARK   17  A    between atoms: _71  and  _72
REMARK   18  A    between atoms: _71  and  _74
REMARK   19  A    between atoms: _74  and  _75
REMARK   20  A    between atoms: _80  and  _81
REMARK   21  A    between atoms: _83  and  _85
REMARK   22  A    between atoms: _85  and  _86
REMARK   23  A    between atoms: _85  and  _88
REMARK   24  A    between atoms: _88  and  _89
REMARK   25  A    between atoms: _89  and  _90
REMARK   26  A    between atoms: _93  and  _95
REMARK   27  A    between atoms: _95  and  _96
REMARK   28  A    between atoms: _95  and  _98
REMARK   29  A    between atoms: _98  and  _99
REMARK   30  A    between atoms: _99  and  _100
REMARK   31  A    between atoms: _102  and  _104
REMARK   32  A    between atoms: _104  and  _105
REMARK   33  A    between atoms: _104  and  _107
REMARK   34  A    between atoms: _107  and  _108
REMARK   35  A    between atoms: _111  and  _113
REMARK   36  A    between atoms: _113  and  _114
REMARK   37  A    between atoms: _113  and  _116
REMARK   38  A    between atoms: _116  and  _117
REMARK   39  A    between atoms: _117  and  _118
REMARK   40  A    between atoms: _118  and  ZN_415
REMARK   41  A    between atoms: _121  and  _122
REMARK   42  A    between atoms: _127  and  _129
REMARK   43  A    between atoms: _129  and  _130
REMARK   44  A    between atoms: _129  and  _132
REMARK   45  A    between atoms: _132  and  _133
REMARK   46  A    between atoms: _139  and  _141
REMARK   47  A    between atoms: _141  and  _142
REMARK   48  A    between atoms: _141  and  _144
REMARK   49  A    between atoms: _144  and  _145
REMARK   50  A    between atoms: _145  and  _146
REMARK   51  A    between atoms: _146  and  _147
REMARK   52  A    between atoms: _156  and  _158
REMARK   53  A    between atoms: _158  and  _159
REMARK   54  A    between atoms: _158  and  _161
REMARK   55  A    between atoms: _161  and  _162
REMARK   56  A    between atoms: _167  and  _168
REMARK   57  A    between atoms: _170  and  _172
REMARK   58  A    between atoms: _172  and  _173
REMARK   59  A    between atoms: _172  and  _175
REMARK   60  A    between atoms: _175  and  _176
REMARK   61  A    between atoms: _178  and  _180
REMARK   62  A    between atoms: _180  and  _181
REMARK   63  A    between atoms: _180  and  _183
REMARK   64  A    between atoms: _183  and  _184
REMARK   65  A    between atoms: _189  and  _190
REMARK   66  A    between atoms: _192  and  _194
REMARK   67  A    between atoms: _194  and  _195
REMARK   68  A    between atoms: _194  and  _197
REMARK   69  A    between atoms: _197  and  _198
REMARK   70  A    between atoms: _201  and  _203
REMARK   71  A    between atoms: _203  and  _204
REMARK   72  A    between atoms: _203  and  _206
REMARK   73  A    between atoms: _206  and  _207
REMARK   74  A    between atoms: _210  and  _212
REMARK   75  A    between atoms: _212  and  _213
REMARK   76  A    between atoms: _212  and  _215
REMARK   77  A    between atoms: _215  and  _216
REMARK   78  A    between atoms: _216  and  _217
REMARK   79  A    between atoms: _217  and  _218
REMARK   80  A    between atoms: _227  and  _229
REMARK   81  A    between atoms: _229  and  _230
REMARK   82  A    between atoms: _232  and  _234
REMARK   83  A    between atoms: _234  and  _235
REMARK   84  A    between atoms: _234  and  _237
REMARK   85  A    between atoms: _237  and  _238
REMARK   86  A    between atoms: _241  and  _243
REMARK   87  A    between atoms: _243  and  _244
REMARK   88  A    between atoms: _243  and  _246
REMARK   89  A    between atoms: _246  and  _247
REMARK   90  A    between atoms: _250  and  _252
REMARK   91  A    between atoms: _252  and  _253
REMARK   92  A    between atoms: _252  and  _255
REMARK   93  A    between atoms: _255  and  _256
REMARK   94  A    between atoms: _262  and  _264
REMARK   95  A    between atoms: _264  and  _265
REMARK   96  A    between atoms: _264  and  _267
REMARK   97  A    between atoms: _267  and  _268
REMARK   98  A    between atoms: _268  and  _269
REMARK   99  A    between atoms: _269  and  _270
REMARK  100  A    between atoms: _279  and  _281
REMARK  101  A    between atoms: _281  and  _282
REMARK  102  A    between atoms: _281  and  _284
REMARK  103  A    between atoms: _284  and  _285
REMARK  104  A    between atoms: _295  and  _297
REMARK  105  A    between atoms: _297  and  _298
REMARK  106  A    between atoms: _297  and  _300
REMARK  107  A    between atoms: _300  and  _301
REMARK  108  A    between atoms: _306  and  _308
REMARK  109  A    between atoms: _308  and  _309
REMARK  110  A    between atoms: _308  and  _311
REMARK  111  A    between atoms: _311  and  _312
REMARK  112  A    between atoms: _316  and  ZN_415
REMARK  113  A    between atoms: _317  and  _319
REMARK  114  A    between atoms: _319  and  _320
REMARK  115  A    between atoms: _319  and  _322
REMARK  116  A    between atoms: _322  and  _323
REMARK  117  A    between atoms: _326  and  _328
REMARK  118  A    between atoms: _328  and  _329
REMARK  119  A    between atoms: _331  and  _333
REMARK  120  A    between atoms: _333  and  _334
REMARK  121  A    between atoms: _333  and  _336
REMARK  122  A    between atoms: _336  and  _337
REMARK  123  A    between atoms: _340  and  _342
REMARK  124  A    between atoms: _342  and  _343
REMARK  125  A    between atoms: _342  and  _345
REMARK  126  A    between atoms: _345  and  _346
REMARK  127  A    between atoms: _349  and  _351
REMARK  128  A    between atoms: _351  and  _352
REMARK  129  A    between atoms: _355  and  _357
REMARK  130  A    between atoms: _357  and  _358
REMARK  131  A    between atoms: _357  and  _360
REMARK  132  A    between atoms: _360  and  _361
REMARK  133  A    between atoms: _366  and  _367
REMARK  134  A    between atoms: _369  and  _371
REMARK  135  A    between atoms: _371  and  _372
REMARK  136  A    between atoms: _371  and  _374
REMARK  137  A    between atoms: _374  and  _375
REMARK  138  A    between atoms: _375  and  _376
REMARK  139  A    between atoms: _379  and  _381
REMARK  140  A    between atoms: _381  and  _382
REMARK  141  A    between atoms: _381  and  _384
REMARK  142  A    between atoms: _384  and  _385
REMARK  143  A    between atoms: _385  and  _386
REMARK  144  A    between atoms: _386  and  _387
REMARK  145  A    between atoms: _396  and  _398
REMARK  146  A    between atoms: _398  and  _399
REMARK  147  A    between atoms: _401  and  _403
REMARK  148  A    between atoms: _403  and  _404
REMARK  149  A    between atoms: _403  and  _406
REMARK  150  A    between atoms: _406  and  _407
REMARK  151  A    between atoms: _410  and  _412
REMARK  152  A    between atoms: _412  and  _413
REMARK                            x       y       z     vdW  Elec       q    Type
REMARK                         _______ _______ _______ _____ _____    ______ ____
ROOT
ATOM      1  O   HOH     1      29.975  72.643  12.317  0.00  0.00    +0.000 OA
ENDROOT
TORSDOF 0
REMARK  Name = ../refined-set-2016/3ddf/3ddf_pocket.pdb
REMARK  152 active torsions:
REMARK  status: ('A' for Active; 'I' for Inactive)
REMARK    1  A    between atoms: _1  and  _3
REMARK    2  A    between atoms: _14  and  _17
REMARK    3  A    between atoms: _17  and  _18
REMARK    4  A    between atoms: _25  and  _26
REMARK    5  A    between atoms: _33  and  _34
REMARK    6  A    between atoms: _39  and  _41
REMARK    7  A    between atoms: _41  and  _42
REMARK    8  A    between atoms: _44  and  _46
REMARK    9  A    between atoms: _46  and  _47
REMARK   10  A    between atoms: _46  and  _49
REMARK   11  A    between atoms: _49  and  _50
REMARK   12  A    between atoms: _60  and  _62
REMARK   13  A    between atoms: _62  and  _63
REMARK   14  A    between atoms: _62  and  _65
REMARK   15  A    between atoms: _65  and  _66
REMARK   16  A    between atoms: _69  and  _71
REMARK   17  A    between atoms: _71  and  _72
REMARK   18  A    between atoms: _71  and  _74
REMARK   19  A    between atoms: _74  and  _75
REMARK   20  A    between atoms: _80  and  _81
REMARK   21  A    between atoms: _83  and  _85
REMARK   22  A    between atoms: _85  and  _86
REMARK   23  A    between atoms: _85  and  _88
REMARK   24  A    between atoms: _88  and  _89
REMARK   25  A    between atoms: _89  and  _90
REMARK   26  A    between atoms: _93  and  _95
REMARK   27  A    between atoms: _95  and  _96
REMARK   28  A    between atoms: _95  and  _98
REMARK   29  A    between atoms: _98  and  _99
REMARK   30  A    between atoms: _99  and  _100
REMARK   31  A    between atoms: _102  and  _104
REMARK   32  A    between atoms: _104  and  _105
REMARK   33  A    between atoms: _104  and  _107
REMARK   34  A    between atoms: _107  and  _108
REMARK   35  A    between atoms: _111  and  _113
REMARK   36  A    between atoms: _113  and  _114
REMARK   37  A    between atoms: _113  and  _116
REMARK   38  A    between atoms: _116  and  _117
REMARK   39  A    between atoms: _117  and  _118
REMARK   40  A    between atoms: _118  and  ZN_415
REMARK   41  A    between atoms: _121  and  _122
REMARK   42  A    between atoms: _127  and  _129
REMARK   43  A    between atoms: _129  and  _130
REMARK   44  A    between atoms: _129  and  _132
REMARK   45  A    between atoms: _132  and  _133
REMARK   46  A    between atoms: _139  and  _141
REMARK   47  A    between atoms: _141  and  _142
REMARK   48  A    between atoms: _141  and  _144
REMARK   49  A    between atoms: _144  and  _145
REMARK   50  A    between atoms: _145  and  _146
REMARK   51  A    between atoms: _146  and  _147
REMARK   52  A    between atoms: _156  and  _158
REMARK   53  A    between atoms: _158  and  _159
REMARK   54  A    between atoms: _158  and  _161
REMARK   55  A    between atoms: _161  and  _162
REMARK   56  A    between atoms: _167  and  _168
REMARK   57  A    between atoms: _170  and  _172
REMARK   58  A    between atoms: _172  and  _173
REMARK   59  A    between atoms: _172  and  _175
REMARK   60  A    between atoms: _175  and  _176
REMARK   61  A    between atoms: _178  and  _180
REMARK   62  A    between atoms: _180  and  _181
REMARK   63  A    between atoms: _180  and  _183
REMARK   64  A    between atoms: _183  and  _184
REMARK   65  A    between atoms: _189  and  _190
REMARK   66  A    between atoms: _192  and  _194
REMARK   67  A    between atoms: _194  and  _195
REMARK   68  A    between atoms: _194  and  _197
REMARK   69  A    between atoms: _197  and  _198
REMARK   70  A    between atoms: _201  and  _203
REMARK   71  A    between atoms: _203  and  _204
REMARK   72  A    between atoms: _203  and  _206
REMARK   73  A    between atoms: _206  and  _207
REMARK   74  A    between atoms: _210  and  _212
REMARK   75  A    between atoms: _212  and  _213
REMARK   76  A    between atoms: _212  and  _215
REMARK   77  A    between atoms: _215  and  _216
REMARK   78  A    between atoms: _216  and  _217
REMARK   79  A    between atoms: _217  and  _218
REMARK   80  A    between atoms: _227  and  _229
REMARK   81  A    between atoms: _229  and  _230
REMARK   82  A    between atoms: _232  and  _234
REMARK   83  A    between atoms: _234  and  _235
REMARK   84  A    between atoms: _234  and  _237
REMARK   85  A    between atoms: _237  and  _238
REMARK   86  A    between atoms: _241  and  _243
REMARK   87  A    between atoms: _243  and  _244
REMARK   88  A    between atoms: _243  and  _246
REMARK   89  A    between atoms: _246  and  _247
REMARK   90  A    between atoms: _250  and  _252
REMARK   91  A    between atoms: _252  and  _253
REMARK   92  A    between atoms: _252  and  _255
REMARK   93  A    between atoms: _255  and  _256
REMARK   94  A    between atoms: _262  and  _264
REMARK   95  A    between atoms: _264  and  _265
REMARK   96  A    between atoms: _264  and  _267
REMARK   97  A    between atoms: _267  and  _268
REMARK   98  A    between atoms: _268  and  _269
REMARK   99  A    between atoms: _269  and  _270
REMARK  100  A    between atoms: _279  and  _281
REMARK  101  A    between atoms: _281  and  _282
REMARK  102  A    between atoms: _281  and  _284
REMARK  103  A    between atoms: _284  and  _285
REMARK  104  A    between atoms: _295  and  _297
REMARK  105  A    between atoms: _297  and  _298
REMARK  106  A    between atoms: _297  and  _300
REMARK  107  A    between atoms: _300  and  _301
REMARK  108  A    between atoms: _306  and  _308
REMARK  109  A    between atoms: _308  and  _309
REMARK  110  A    between atoms: _308  and  _311
REMARK  111  A    between atoms: _311  and  _312
REMARK  112  A    between atoms: _316  and  ZN_415
REMARK  113  A    between atoms: _317  and  _319
REMARK  114  A    between atoms: _319  and  _320
REMARK  115  A    between atoms: _319  and  _322
REMARK  116  A    between atoms: _322  and  _323
REMARK  117  A    between atoms: _326  and  _328
REMARK  118  A    between atoms: _328  and  _329
REMARK  119  A    between atoms: _331  and  _333
REMARK  120  A    between atoms: _333  and  _334
REMARK  121  A    between atoms: _333  and  _336
REMARK  122  A    between atoms: _336  and  _337
REMARK  123  A    between atoms: _340  and  _342
REMARK  124  A    between atoms: _342  and  _343
REMARK  125  A    between atoms: _342  and  _345
REMARK  126  A    between atoms: _345  and  _346
REMARK  127  A    between atoms: _349  and  _351
REMARK  128  A    between atoms: _351  and  _352
REMARK  129  A    between atoms: _355  and  _357
REMARK  130  A    between atoms: _357  and  _358
REMARK  131  A    between atoms: _357  and  _360
REMARK  132  A    between atoms: _360  and  _361
REMARK  133  A    between atoms: _366  and  _367
REMARK  134  A    between atoms: _369  and  _371
REMARK  135  A    between atoms: _371  and  _372
REMARK  136  A    between atoms: _371  and  _374
REMARK  137  A    between atoms: _374  and  _375
REMARK  138  A    between atoms: _375  and  _376
REMARK  139  A    between atoms: _379  and  _381
REMARK  140  A    between atoms: _381  and  _382
REMARK  141  A    between atoms: _381  and  _384
REMARK  142  A    between atoms: _384  and  _385
REMARK  143  A    between atoms: _385  and  _386
REMARK  144  A    between atoms: _386  and  _387
REMARK  145  A    between atoms: _396  and  _398
REMARK  146  A    between atoms: _398  and  _399
REMARK  147  A    between atoms: _401  and  _403
REMARK  148  A    between atoms: _403  and  _404
REMARK  149  A    between atoms: _403  and  _406
REMARK  150  A    between atoms: _406  and  _407
REMARK  151  A    between atoms: _410  and  _412
REMARK  152  A    between atoms: _412  and  _413
REMARK                            x       y       z     vdW  Elec       q    Type
REMARK                         _______ _______ _______ _____ _____    ______ ____
ROOT
ATOM      1  O   HOH     1      28.043  72.489  14.553  0.00  0.00    +0.000 OA
ENDROOT
TORSDOF 0
REMARK  Name = ../refined-set-2016/3ddf/3ddf_pocket.pdb
REMARK  152 active torsions:
REMARK  status: ('A' for Active; 'I' for Inactive)
REMARK    1  A    between atoms: _1  and  _3
REMARK    2  A    between atoms: _14  and  _17
REMARK    3  A    between atoms: _17  and  _18
REMARK    4  A    between atoms: _25  and  _26
REMARK    5  A    between atoms: _33  and  _34
REMARK    6  A    between atoms: _39  and  _41
REMARK    7  A    between atoms: _41  and  _42
REMARK    8  A    between atoms: _44  and  _46
REMARK    9  A    between atoms: _46  and  _47
REMARK   10  A    between atoms: _46  and  _49
REMARK   11  A    between atoms: _49  and  _50
REMARK   12  A    between atoms: _60  and  _62
REMARK   13  A    between atoms: _62  and  _63
REMARK   14  A    between atoms: _62  and  _65
REMARK   15  A    between atoms: _65  and  _66
REMARK   16  A    between atoms: _69  and  _71
REMARK   17  A    between atoms: _71  and  _72
REMARK   18  A    between atoms: _71  and  _74
REMARK   19  A    between atoms: _74  and  _75
REMARK   20  A    between atoms: _80  and  _81
REMARK   21  A    between atoms: _83  and  _85
REMARK   22  A    between atoms: _85  and  _86
REMARK   23  A    between atoms: _85  and  _88
REMARK   24  A    between atoms: _88  and  _89
REMARK   25  A    between atoms: _89  and  _90
REMARK   26  A    between atoms: _93  and  _95
REMARK   27  A    between atoms: _95  and  _96
REMARK   28  A    between atoms: _95  and  _98
REMARK   29  A    between atoms: _98  and  _99
REMARK   30  A    between atoms: _99  and  _100
REMARK   31  A    between atoms: _102  and  _104
REMARK   32  A    between atoms: _104  and  _105
REMARK   33  A    between atoms: _104  and  _107
REMARK   34  A    between atoms: _107  and  _108
REMARK   35  A    between atoms: _111  and  _113
REMARK   36  A    between atoms: _113  and  _114
REMARK   37  A    between atoms: _113  and  _116
REMARK   38  A    between atoms: _116  and  _117
REMARK   39  A    between atoms: _117  and  _118
REMARK   40  A    between atoms: _118  and  ZN_415
REMARK   41  A    between atoms: _121  and  _122
REMARK   42  A    between atoms: _127  and  _129
REMARK   43  A    between atoms: _129  and  _130
REMARK   44  A    between atoms: _129  and  _132
REMARK   45  A    between atoms: _132  and  _133
REMARK   46  A    between atoms: _139  and  _141
REMARK   47  A    between atoms: _141  and  _142
REMARK   48  A    between atoms: _141  and  _144
REMARK   49  A    between atoms: _144  and  _145
REMARK   50  A    between atoms: _145  and  _146
REMARK   51  A    between atoms: _146  and  _147
REMARK   52  A    between atoms: _156  and  _158
REMARK   53  A    between atoms: _158  and  _159
REMARK   54  A    between atoms: _158  and  _161
REMARK   55  A    between atoms: _161  and  _162
REMARK   56  A    between atoms: _167  and  _168
REMARK   57  A    between atoms: _170  and  _172
REMARK   58  A    between atoms: _172  and  _173
REMARK   59  A    between atoms: _172  and  _175
REMARK   60  A    between atoms: _175  and  _176
REMARK   61  A    between atoms: _178  and  _180
REMARK   62  A    between atoms: _180  and  _181
REMARK   63  A    between atoms: _180  and  _183
REMARK   64  A    between atoms: _183  and  _184
REMARK   65  A    between atoms: _189  and  _190
REMARK   66  A    between atoms: _192  and  _194
REMARK   67  A    between atoms: _194  and  _195
REMARK   68  A    between atoms: _194  and  _197
REMARK   69  A    between atoms: _197  and  _198
REMARK   70  A    between atoms: _201  and  _203
REMARK   71  A    between atoms: _203  and  _204
REMARK   72  A    between atoms: _203  and  _206
REMARK   73  A    between atoms: _206  and  _207
REMARK   74  A    between atoms: _210  and  _212
REMARK   75  A    between atoms: _212  and  _213
REMARK   76  A    between atoms: _212  and  _215
REMARK   77  A    between atoms: _215  and  _216
REMARK   78  A    between atoms: _216  and  _217
REMARK   79  A    between atoms: _217  and  _218
REMARK   80  A    between atoms: _227  and  _229
REMARK   81  A    between atoms: _229  and  _230
REMARK   82  A    between atoms: _232  and  _234
REMARK   83  A    between atoms: _234  and  _235
REMARK   84  A    between atoms: _234  and  _237
REMARK   85  A    between atoms: _237  and  _238
REMARK   86  A    between atoms: _241  and  _243
REMARK   87  A    between atoms: _243  and  _244
REMARK   88  A    between atoms: _243  and  _246
REMARK   89  A    between atoms: _246  and  _247
REMARK   90  A    between atoms: _250  and  _252
REMARK   91  A    between atoms: _252  and  _253
REMARK   92  A    between atoms: _252  and  _255
REMARK   93  A    between atoms: _255  and  _256
REMARK   94  A    between atoms: _262  and  _264
REMARK   95  A    between atoms: _264  and  _265
REMARK   96  A    between atoms: _264  and  _267
REMARK   97  A    between atoms: _267  and  _268
REMARK   98  A    between atoms: _268  and  _269
REMARK   99  A    between atoms: _269  and  _270
REMARK  100  A    between atoms: _279  and  _281
REMARK  101  A    between atoms: _281  and  _282
REMARK  102  A    between atoms: _281  and  _284
REMARK  103  A    between atoms: _284  and  _285
REMARK  104  A    between atoms: _295  and  _297
REMARK  105  A    between atoms: _297  and  _298
REMARK  106  A    between atoms: _297  and  _300
REMARK  107  A    between atoms: _300  and  _301
REMARK  108  A    between atoms: _306  and  _308
REMARK  109  A    between atoms: _308  and  _309
REMARK  110  A    between atoms: _308  and  _311
REMARK  111  A    between atoms: _311  and  _312
REMARK  112  A    between atoms: _316  and  ZN_415
REMARK  113  A    between atoms: _317  and  _319
REMARK  114  A    between atoms: _319  and  _320
REMARK  115  A    between atoms: _319  and  _322
REMARK  116  A    between atoms: _322  and  _323
REMARK  117  A    between atoms: _326  and  _328
REMARK  118  A    between atoms: _328  and  _329
REMARK  119  A    between atoms: _331  and  _333
REMARK  120  A    between atoms: _333  and  _334
REMARK  121  A    between atoms: _333  and  _336
REMARK  122  A    between atoms: _336  and  _337
REMARK  123  A    between atoms: _340  and  _342
REMARK  124  A    between atoms: _342  and  _343
REMARK  125  A    between atoms: _342  and  _345
REMARK  126  A    between atoms: _345  and  _346
REMARK  127  A    between atoms: _349  and  _351
REMARK  128  A    between atoms: _351  and  _352
REMARK  129  A    between atoms: _355  and  _357
REMARK  130  A    between atoms: _357  and  _358
REMARK  131  A    between atoms: _357  and  _360
REMARK  132  A    between atoms: _360  and  _361
REMARK  133  A    between atoms: _366  and  _367
REMARK  134  A    between atoms: _369  and  _371
REMARK  135  A    between atoms: _371  and  _372
REMARK  136  A    between atoms: _371  and  _374
REMARK  137  A    between atoms: _374  and  _375
REMARK  138  A    between atoms: _375  and  _376
REMARK  139  A    between atoms: _379  and  _381
REMARK  140  A    between atoms: _381  and  _382
REMARK  141  A    between atoms: _381  and  _384
REMARK  142  A    between atoms: _384  and  _385
REMARK  143  A    between atoms: _385  and  _386
REMARK  144  A    between atoms: _386  and  _387
REMARK  145  A    between atoms: _396  and  _398
REMARK  146  A    between atoms: _398  and  _399
REMARK  147  A    between atoms: _401  and  _403
REMARK  148  A    between atoms: _403  and  _404
REMARK  149  A    between atoms: _403  and  _406
REMARK  150  A    between atoms: _406  and  _407
REMARK  151  A    between atoms: _410  and  _412
REMARK  152  A    between atoms: _412  and  _413
REMARK                            x       y       z     vdW  Elec       q    Type
REMARK                         _______ _______ _______ _____ _____    ______ ____
ROOT
ATOM      1  O   HOH     1      26.101  75.245  11.062  0.00  0.00    +0.000 OA
ENDROOT
TORSDOF 0
REMARK  Name = ../refined-set-2016/3ddf/3ddf_pocket.pdb
REMARK  152 active torsions:
REMARK  status: ('A' for Active; 'I' for Inactive)
REMARK    1  A    between atoms: _1  and  _3
REMARK    2  A    between atoms: _14  and  _17
REMARK    3  A    between atoms: _17  and  _18
REMARK    4  A    between atoms: _25  and  _26
REMARK    5  A    between atoms: _33  and  _34
REMARK    6  A    between atoms: _39  and  _41
REMARK    7  A    between atoms: _41  and  _42
REMARK    8  A    between atoms: _44  and  _46
REMARK    9  A    between atoms: _46  and  _47
REMARK   10  A    between atoms: _46  and  _49
REMARK   11  A    between atoms: _49  and  _50
REMARK   12  A    between atoms: _60  and  _62
REMARK   13  A    between atoms: _62  and  _63
REMARK   14  A    between atoms: _62  and  _65
REMARK   15  A    between atoms: _65  and  _66
REMARK   16  A    between atoms: _69  and  _71
REMARK   17  A    between atoms: _71  and  _72
REMARK   18  A    between atoms: _71  and  _74
REMARK   19  A    between atoms: _74  and  _75
REMARK   20  A    between atoms: _80  and  _81
REMARK   21  A    between atoms: _83  and  _85
REMARK   22  A    between atoms: _85  and  _86
REMARK   23  A    between atoms: _85  and  _88
REMARK   24  A    between atoms: _88  and  _89
REMARK   25  A    between atoms: _89  and  _90
REMARK   26  A    between atoms: _93  and  _95
REMARK   27  A    between atoms: _95  and  _96
REMARK   28  A    between atoms: _95  and  _98
REMARK   29  A    between atoms: _98  and  _99
REMARK   30  A    between atoms: _99  and  _100
REMARK   31  A    between atoms: _102  and  _104
REMARK   32  A    between atoms: _104  and  _105
REMARK   33  A    between atoms: _104  and  _107
REMARK   34  A    between atoms: _107  and  _108
REMARK   35  A    between atoms: _111  and  _113
REMARK   36  A    between atoms: _113  and  _114
REMARK   37  A    between atoms: _113  and  _116
REMARK   38  A    between atoms: _116  and  _117
REMARK   39  A    between atoms: _117  and  _118
REMARK   40  A    between atoms: _118  and  ZN_415
REMARK   41  A    between atoms: _121  and  _122
REMARK   42  A    between atoms: _127  and  _129
REMARK   43  A    between atoms: _129  and  _130
REMARK   44  A    between atoms: _129  and  _132
REMARK   45  A    between atoms: _132  and  _133
REMARK   46  A    between atoms: _139  and  _141
REMARK   47  A    between atoms: _141  and  _142
REMARK   48  A    between atoms: _141  and  _144
REMARK   49  A    between atoms: _144  and  _145
REMARK   50  A    between atoms: _145  and  _146
REMARK   51  A    between atoms: _146  and  _147
REMARK   52  A    between atoms: _156  and  _158
REMARK   53  A    between atoms: _158  and  _159
REMARK   54  A    between atoms: _158  and  _161
REMARK   55  A    between atoms: _161  and  _162
REMARK   56  A    between atoms: _167  and  _168
REMARK   57  A    between atoms: _170  and  _172
REMARK   58  A    between atoms: _172  and  _173
REMARK   59  A    between atoms: _172  and  _175
REMARK   60  A    between atoms: _175  and  _176
REMARK   61  A    between atoms: _178  and  _180
REMARK   62  A    between atoms: _180  and  _181
REMARK   63  A    between atoms: _180  and  _183
REMARK   64  A    between atoms: _183  and  _184
REMARK   65  A    between atoms: _189  and  _190
REMARK   66  A    between atoms: _192  and  _194
REMARK   67  A    between atoms: _194  and  _195
REMARK   68  A    between atoms: _194  and  _197
REMARK   69  A    between atoms: _197  and  _198
REMARK   70  A    between atoms: _201  and  _203
REMARK   71  A    between atoms: _203  and  _204
REMARK   72  A    between atoms: _203  and  _206
REMARK   73  A    between atoms: _206  and  _207
REMARK   74  A    between atoms: _210  and  _212
REMARK   75  A    between atoms: _212  and  _213
REMARK   76  A    between atoms: _212  and  _215
REMARK   77  A    between atoms: _215  and  _216
REMARK   78  A    between atoms: _216  and  _217
REMARK   79  A    between atoms: _217  and  _218
REMARK   80  A    between atoms: _227  and  _229
REMARK   81  A    between atoms: _229  and  _230
REMARK   82  A    between atoms: _232  and  _234
REMARK   83  A    between atoms: _234  and  _235
REMARK   84  A    between atoms: _234  and  _237
REMARK   85  A    between atoms: _237  and  _238
REMARK   86  A    between atoms: _241  and  _243
REMARK   87  A    between atoms: _243  and  _244
REMARK   88  A    between atoms: _243  and  _246
REMARK   89  A    between atoms: _246  and  _247
REMARK   90  A    between atoms: _250  and  _252
REMARK   91  A    between atoms: _252  and  _253
REMARK   92  A    between atoms: _252  and  _255
REMARK   93  A    between atoms: _255  and  _256
REMARK   94  A    between atoms: _262  and  _264
REMARK   95  A    between atoms: _264  and  _265
REMARK   96  A    between atoms: _264  and  _267
REMARK   97  A    between atoms: _267  and  _268
REMARK   98  A    between atoms: _268  and  _269
REMARK   99  A    between atoms: _269  and  _270
REMARK  100  A    between atoms: _279  and  _281
REMARK  101  A    between atoms: _281  and  _282
REMARK  102  A    between atoms: _281  and  _284
REMARK  103  A    between atoms: _284  and  _285
REMARK  104  A    between atoms: _295  and  _297
REMARK  105  A    between atoms: _297  and  _298
REMARK  106  A    between atoms: _297  and  _300
REMARK  107  A    between atoms: _300  and  _301
REMARK  108  A    between atoms: _306  and  _308
REMARK  109  A    between atoms: _308  and  _309
REMARK  110  A    between atoms: _308  and  _311
REMARK  111  A    between atoms: _311  and  _312
REMARK  112  A    between atoms: _316  and  ZN_415
REMARK  113  A    between atoms: _317  and  _319
REMARK  114  A    between atoms: _319  and  _320
REMARK  115  A    between atoms: _319  and  _322
REMARK  116  A    between atoms: _322  and  _323
REMARK  117  A    between atoms: _326  and  _328
REMARK  118  A    between atoms: _328  and  _329
REMARK  119  A    between atoms: _331  and  _333
REMARK  120  A    between atoms: _333  and  _334
REMARK  121  A    between atoms: _333  and  _336
REMARK  122  A    between atoms: _336  and  _337
REMARK  123  A    between atoms: _340  and  _342
REMARK  124  A    between atoms: _342  and  _343
REMARK  125  A    between atoms: _342  and  _345
REMARK  126  A    between atoms: _345  and  _346
REMARK  127  A    between atoms: _349  and  _351
REMARK  128  A    between atoms: _351  and  _352
REMARK  129  A    between atoms: _355  and  _357
REMARK  130  A    between atoms: _357  and  _358
REMARK  131  A    between atoms: _357  and  _360
REMARK  132  A    between atoms: _360  and  _361
REMARK  133  A    between atoms: _366  and  _367
REMARK  134  A    between atoms: _369  and  _371
REMARK  135  A    between atoms: _371  and  _372
REMARK  136  A    between atoms: _371  and  _374
REMARK  137  A    between atoms: _374  and  _375
REMARK  138  A    between atoms: _375  and  _376
REMARK  139  A    between atoms: _379  and  _381
REMARK  140  A    between atoms: _381  and  _382
REMARK  141  A    between atoms: _381  and  _384
REMARK  142  A    between atoms: _384  and  _385
REMARK  143  A    between atoms: _385  and  _386
REMARK  144  A    between atoms: _386  and  _387
REMARK  145  A    between atoms: _396  and  _398
REMARK  146  A    between atoms: _398  and  _399
REMARK  147  A    between atoms: _401  and  _403
REMARK  148  A    between atoms: _403  and  _404
REMARK  149  A    between atoms: _403  and  _406
REMARK  150  A    between atoms: _406  and  _407
REMARK  151  A    between atoms: _410  and  _412
REMARK  152  A    between atoms: _412  and  _413
REMARK                            x       y       z     vdW  Elec       q    Type
REMARK                         _______ _______ _______ _____ _____    ______ ____
ROOT
ATOM      1  O   HOH     1      25.096  73.860   8.950  0.00  0.00    +0.000 OA
ENDROOT
TORSDOF 0
REMARK  Name = ../refined-set-2016/3ddf/3ddf_pocket.pdb
REMARK  152 active torsions:
REMARK  status: ('A' for Active; 'I' for Inactive)
REMARK    1  A    between atoms: _1  and  _3
REMARK    2  A    between atoms: _14  and  _17
REMARK    3  A    between atoms: _17  and  _18
REMARK    4  A    between atoms: _25  and  _26
REMARK    5  A    between atoms: _33  and  _34
REMARK    6  A    between atoms: _39  and  _41
REMARK    7  A    between atoms: _41  and  _42
REMARK    8  A    between atoms: _44  and  _46
REMARK    9  A    between atoms: _46  and  _47
REMARK   10  A    between atoms: _46  and  _49
REMARK   11  A    between atoms: _49  and  _50
REMARK   12  A    between atoms: _60  and  _62
REMARK   13  A    between atoms: _62  and  _63
REMARK   14  A    between atoms: _62  and  _65
REMARK   15  A    between atoms: _65  and  _66
REMARK   16  A    between atoms: _69  and  _71
REMARK   17  A    between atoms: _71  and  _72
REMARK   18  A    between atoms: _71  and  _74
REMARK   19  A    between atoms: _74  and  _75
REMARK   20  A    between atoms: _80  and  _81
REMARK   21  A    between atoms: _83  and  _85
REMARK   22  A    between atoms: _85  and  _86
REMARK   23  A    between atoms: _85  and  _88
REMARK   24  A    between atoms: _88  and  _89
REMARK   25  A    between atoms: _89  and  _90
REMARK   26  A    between atoms: _93  and  _95
REMARK   27  A    between atoms: _95  and  _96
REMARK   28  A    between atoms: _95  and  _98
REMARK   29  A    between atoms: _98  and  _99
REMARK   30  A    between atoms: _99  and  _100
REMARK   31  A    between atoms: _102  and  _104
REMARK   32  A    between atoms: _104  and  _105
REMARK   33  A    between atoms: _104  and  _107
REMARK   34  A    between atoms: _107  and  _108
REMARK   35  A    between atoms: _111  and  _113
REMARK   36  A    between atoms: _113  and  _114
REMARK   37  A    between atoms: _113  and  _116
REMARK   38  A    between atoms: _116  and  _117
REMARK   39  A    between atoms: _117  and  _118
REMARK   40  A    between atoms: _118  and  ZN_415
REMARK   41  A    between atoms: _121  and  _122
REMARK   42  A    between atoms: _127  and  _129
REMARK   43  A    between atoms: _129  and  _130
REMARK   44  A    between atoms: _129  and  _132
REMARK   45  A    between atoms: _132  and  _133
REMARK   46  A    between atoms: _139  and  _141
REMARK   47  A    between atoms: _141  and  _142
REMARK   48  A    between atoms: _141  and  _144
REMARK   49  A    between atoms: _144  and  _145
REMARK   50  A    between atoms: _145  and  _146
REMARK   51  A    between atoms: _146  and  _147
REMARK   52  A    between atoms: _156  and  _158
REMARK   53  A    between atoms: _158  and  _159
REMARK   54  A    between atoms: _158  and  _161
REMARK   55  A    between atoms: _161  and  _162
REMARK   56  A    between atoms: _167  and  _168
REMARK   57  A    between atoms: _170  and  _172
REMARK   58  A    between atoms: _172  and  _173
REMARK   59  A    between atoms: _172  and  _175
REMARK   60  A    between atoms: _175  and  _176
REMARK   61  A    between atoms: _178  and  _180
REMARK   62  A    between atoms: _180  and  _181
REMARK   63  A    between atoms: _180  and  _183
REMARK   64  A    between atoms: _183  and  _184
REMARK   65  A    between atoms: _189  and  _190
REMARK   66  A    between atoms: _192  and  _194
REMARK   67  A    between atoms: _194  and  _195
REMARK   68  A    between atoms: _194  and  _197
REMARK   69  A    between atoms: _197  and  _198
REMARK   70  A    between atoms: _201  and  _203
REMARK   71  A    between atoms: _203  and  _204
REMARK   72  A    between atoms: _203  and  _206
REMARK   73  A    between atoms: _206  and  _207
REMARK   74  A    between atoms: _210  and  _212
REMARK   75  A    between atoms: _212  and  _213
REMARK   76  A    between atoms: _212  and  _215
REMARK   77  A    between atoms: _215  and  _216
REMARK   78  A    between atoms: _216  and  _217
REMARK   79  A    between atoms: _217  and  _218
REMARK   80  A    between atoms: _227  and  _229
REMARK   81  A    between atoms: _229  and  _230
REMARK   82  A    between atoms: _232  and  _234
REMARK   83  A    between atoms: _234  and  _235
REMARK   84  A    between atoms: _234  and  _237
REMARK   85  A    between atoms: _237  and  _238
REMARK   86  A    between atoms: _241  and  _243
REMARK   87  A    between atoms: _243  and  _244
REMARK   88  A    between atoms: _243  and  _246
REMARK   89  A    between atoms: _246  and  _247
REMARK   90  A    between atoms: _250  and  _252
REMARK   91  A    between atoms: _252  and  _253
REMARK   92  A    between atoms: _252  and  _255
REMARK   93  A    between atoms: _255  and  _256
REMARK   94  A    between atoms: _262  and  _264
REMARK   95  A    between atoms: _264  and  _265
REMARK   96  A    between atoms: _264  and  _267
REMARK   97  A    between atoms: _267  and  _268
REMARK   98  A    between atoms: _268  and  _269
REMARK   99  A    between atoms: _269  and  _270
REMARK  100  A    between atoms: _279  and  _281
REMARK  101  A    between atoms: _281  and  _282
REMARK  102  A    between atoms: _281  and  _284
REMARK  103  A    between atoms: _284  and  _285
REMARK  104  A    between atoms: _295  and  _297
REMARK  105  A    between atoms: _297  and  _298
REMARK  106  A    between atoms: _297  and  _300
REMARK  107  A    between atoms: _300  and  _301
REMARK  108  A    between atoms: _306  and  _308
REMARK  109  A    between atoms: _308  and  _309
REMARK  110  A    between atoms: _308  and  _311
REMARK  111  A    between atoms: _311  and  _312
REMARK  112  A    between atoms: _316  and  ZN_415
REMARK  113  A    between atoms: _317  and  _319
REMARK  114  A    between atoms: _319  and  _320
REMARK  115  A    between atoms: _319  and  _322
REMARK  116  A    between atoms: _322  and  _323
REMARK  117  A    between atoms: _326  and  _328
REMARK  118  A    between atoms: _328  and  _329
REMARK  119  A    between atoms: _331  and  _333
REMARK  120  A    between atoms: _333  and  _334
REMARK  121  A    between atoms: _333  and  _336
REMARK  122  A    between atoms: _336  and  _337
REMARK  123  A    between atoms: _340  and  _342
REMARK  124  A    between atoms: _342  and  _343
REMARK  125  A    between atoms: _342  and  _345
REMARK  126  A    between atoms: _345  and  _346
REMARK  127  A    between atoms: _349  and  _351
REMARK  128  A    between atoms: _351  and  _352
REMARK  129  A    between atoms: _355  and  _357
REMARK  130  A    between atoms: _357  and  _358
REMARK  131  A    between atoms: _357  and  _360
REMARK  132  A    between atoms: _360  and  _361
REMARK  133  A    between atoms: _366  and  _367
REMARK  134  A    between atoms: _369  and  _371
REMARK  135  A    between atoms: _371  and  _372
REMARK  136  A    between atoms: _371  and  _374
REMARK  137  A    between atoms: _374  and  _375
REMARK  138  A    between atoms: _375  and  _376
REMARK  139  A    between atoms: _379  and  _381
REMARK  140  A    between atoms: _381  and  _382
REMARK  141  A    between atoms: _381  and  _384
REMARK  142  A    between atoms: _384  and  _385
REMARK  143  A    between atoms: _385  and  _386
REMARK  144  A    between atoms: _386  and  _387
REMARK  145  A    between atoms: _396  and  _398
REMARK  146  A    between atoms: _398  and  _399
REMARK  147  A    between atoms: _401  and  _403
REMARK  148  A    between atoms: _403  and  _404
REMARK  149  A    between atoms: _403  and  _406
REMARK  150  A    between atoms: _406  and  _407
REMARK  151  A    between atoms: _410  and  _412
REMARK  152  A    between atoms: _412  and  _413
REMARK                            x       y       z     vdW  Elec       q    Type
REMARK                         _______ _______ _______ _____ _____    ______ ____
ROOT
ATOM      1  O   HOH     1      26.071  72.840   5.577  0.00  0.00    +0.000 OA
ENDROOT
TORSDOF 0
REMARK  Name = ../refined-set-2016/3ddf/3ddf_pocket.pdb
REMARK  152 active torsions:
REMARK  status: ('A' for Active; 'I' for Inactive)
REMARK    1  A    between atoms: _1  and  _3
REMARK    2  A    between atoms: _14  and  _17
REMARK    3  A    between atoms: _17  and  _18
REMARK    4  A    between atoms: _25  and  _26
REMARK    5  A    between atoms: _33  and  _34
REMARK    6  A    between atoms: _39  and  _41
REMARK    7  A    between atoms: _41  and  _42
REMARK    8  A    between atoms: _44  and  _46
REMARK    9  A    between atoms: _46  and  _47
REMARK   10  A    between atoms: _46  and  _49
REMARK   11  A    between atoms: _49  and  _50
REMARK   12  A    between atoms: _60  and  _62
REMARK   13  A    between atoms: _62  and  _63
REMARK   14  A    between atoms: _62  and  _65
REMARK   15  A    between atoms: _65  and  _66
REMARK   16  A    between atoms: _69  and  _71
REMARK   17  A    between atoms: _71  and  _72
REMARK   18  A    between atoms: _71  and  _74
REMARK   19  A    between atoms: _74  and  _75
REMARK   20  A    between atoms: _80  and  _81
REMARK   21  A    between atoms: _83  and  _85
REMARK   22  A    between atoms: _85  and  _86
REMARK   23  A    between atoms: _85  and  _88
REMARK   24  A    between atoms: _88  and  _89
REMARK   25  A    between atoms: _89  and  _90
REMARK   26  A    between atoms: _93  and  _95
REMARK   27  A    between atoms: _95  and  _96
REMARK   28  A    between atoms: _95  and  _98
REMARK   29  A    between atoms: _98  and  _99
REMARK   30  A    between atoms: _99  and  _100
REMARK   31  A    between atoms: _102  and  _104
REMARK   32  A    between atoms: _104  and  _105
REMARK   33  A    between atoms: _104  and  _107
REMARK   34  A    between atoms: _107  and  _108
REMARK   35  A    between atoms: _111  and  _113
REMARK   36  A    between atoms: _113  and  _114
REMARK   37  A    between atoms: _113  and  _116
REMARK   38  A    between atoms: _116  and  _117
REMARK   39  A    between atoms: _117  and  _118
REMARK   40  A    between atoms: _118  and  ZN_415
REMARK   41  A    between atoms: _121  and  _122
REMARK   42  A    between atoms: _127  and  _129
REMARK   43  A    between atoms: _129  and  _130
REMARK   44  A    between atoms: _129  and  _132
REMARK   45  A    between atoms: _132  and  _133
REMARK   46  A    between atoms: _139  and  _141
REMARK   47  A    between atoms: _141  and  _142
REMARK   48  A    between atoms: _141  and  _144
REMARK   49  A    between atoms: _144  and  _145
REMARK   50  A    between atoms: _145  and  _146
REMARK   51  A    between atoms: _146  and  _147
REMARK   52  A    between atoms: _156  and  _158
REMARK   53  A    between atoms: _158  and  _159
REMARK   54  A    between atoms: _158  and  _161
REMARK   55  A    between atoms: _161  and  _162
REMARK   56  A    between atoms: _167  and  _168
REMARK   57  A    between atoms: _170  and  _172
REMARK   58  A    between atoms: _172  and  _173
REMARK   59  A    between atoms: _172  and  _175
REMARK   60  A    between atoms: _175  and  _176
REMARK   61  A    between atoms: _178  and  _180
REMARK   62  A    between atoms: _180  and  _181
REMARK   63  A    between atoms: _180  and  _183
REMARK   64  A    between atoms: _183  and  _184
REMARK   65  A    between atoms: _189  and  _190
REMARK   66  A    between atoms: _192  and  _194
REMARK   67  A    between atoms: _194  and  _195
REMARK   68  A    between atoms: _194  and  _197
REMARK   69  A    between atoms: _197  and  _198
REMARK   70  A    between atoms: _201  and  _203
REMARK   71  A    between atoms: _203  and  _204
REMARK   72  A    between atoms: _203  and  _206
REMARK   73  A    between atoms: _206  and  _207
REMARK   74  A    between atoms: _210  and  _212
REMARK   75  A    between atoms: _212  and  _213
REMARK   76  A    between atoms: _212  and  _215
REMARK   77  A    between atoms: _215  and  _216
REMARK   78  A    between atoms: _216  and  _217
REMARK   79  A    between atoms: _217  and  _218
REMARK   80  A    between atoms: _227  and  _229
REMARK   81  A    between atoms: _229  and  _230
REMARK   82  A    between atoms: _232  and  _234
REMARK   83  A    between atoms: _234  and  _235
REMARK   84  A    between atoms: _234  and  _237
REMARK   85  A    between atoms: _237  and  _238
REMARK   86  A    between atoms: _241  and  _243
REMARK   87  A    between atoms: _243  and  _244
REMARK   88  A    between atoms: _243  and  _246
REMARK   89  A    between atoms: _246  and  _247
REMARK   90  A    between atoms: _250  and  _252
REMARK   91  A    between atoms: _252  and  _253
REMARK   92  A    between atoms: _252  and  _255
REMARK   93  A    between atoms: _255  and  _256
REMARK   94  A    between atoms: _262  and  _264
REMARK   95  A    between atoms: _264  and  _265
REMARK   96  A    between atoms: _264  and  _267
REMARK   97  A    between atoms: _267  and  _268
REMARK   98  A    between atoms: _268  and  _269
REMARK   99  A    between atoms: _269  and  _270
REMARK  100  A    between atoms: _279  and  _281
REMARK  101  A    between atoms: _281  and  _282
REMARK  102  A    between atoms: _281  and  _284
REMARK  103  A    between atoms: _284  and  _285
REMARK  104  A    between atoms: _295  and  _297
REMARK  105  A    between atoms: _297  and  _298
REMARK  106  A    between atoms: _297  and  _300
REMARK  107  A    between atoms: _300  and  _301
REMARK  108  A    between atoms: _306  and  _308
REMARK  109  A    between atoms: _308  and  _309
REMARK  110  A    between atoms: _308  and  _311
REMARK  111  A    between atoms: _311  and  _312
REMARK  112  A    between atoms: _316  and  ZN_415
REMARK  113  A    between atoms: _317  and  _319
REMARK  114  A    between atoms: _319  and  _320
REMARK  115  A    between atoms: _319  and  _322
REMARK  116  A    between atoms: _322  and  _323
REMARK  117  A    between atoms: _326  and  _328
REMARK  118  A    between atoms: _328  and  _329
REMARK  119  A    between atoms: _331  and  _333
REMARK  120  A    between atoms: _333  and  _334
REMARK  121  A    between atoms: _333  and  _336
REMARK  122  A    between atoms: _336  and  _337
REMARK  123  A    between atoms: _340  and  _342
REMARK  124  A    between atoms: _342  and  _343
REMARK  125  A    between atoms: _342  and  _345
REMARK  126  A    between atoms: _345  and  _346
REMARK  127  A    between atoms: _349  and  _351
REMARK  128  A    between atoms: _351  and  _352
REMARK  129  A    between atoms: _355  and  _357
REMARK  130  A    between atoms: _357  and  _358
REMARK  131  A    between atoms: _357  and  _360
REMARK  132  A    between atoms: _360  and  _361
REMARK  133  A    between atoms: _366  and  _367
REMARK  134  A    between atoms: _369  and  _371
REMARK  135  A    between atoms: _371  and  _372
REMARK  136  A    between atoms: _371  and  _374
REMARK  137  A    between atoms: _374  and  _375
REMARK  138  A    between atoms: _375  and  _376
REMARK  139  A    between atoms: _379  and  _381
REMARK  140  A    between atoms: _381  and  _382
REMARK  141  A    between atoms: _381  and  _384
REMARK  142  A    between atoms: _384  and  _385
REMARK  143  A    between atoms: _385  and  _386
REMARK  144  A    between atoms: _386  and  _387
REMARK  145  A    between atoms: _396  and  _398
REMARK  146  A    between atoms: _398  and  _399
REMARK  147  A    between atoms: _401  and  _403
REMARK  148  A    between atoms: _403  and  _404
REMARK  149  A    between atoms: _403  and  _406
REMARK  150  A    between atoms: _406  and  _407
REMARK  151  A    between atoms: _410  and  _412
REMARK  152  A    between atoms: _412  and  _413
REMARK                            x       y       z     vdW  Elec       q    Type
REMARK                         _______ _______ _______ _____ _____    ______ ____
ROOT
ATOM      1  O   HOH     1      29.758  75.866  10.923  0.00  0.00    +0.000 OA
ENDROOT
TORSDOF 0
REMARK  Name = ../refined-set-2016/3ddf/3ddf_pocket.pdb
REMARK  152 active torsions:
REMARK  status: ('A' for Active; 'I' for Inactive)
REMARK    1  A    between atoms: _1  and  _3
REMARK    2  A    between atoms: _14  and  _17
REMARK    3  A    between atoms: _17  and  _18
REMARK    4  A    between atoms: _25  and  _26
REMARK    5  A    between atoms: _33  and  _34
REMARK    6  A    between atoms: _39  and  _41
REMARK    7  A    between atoms: _41  and  _42
REMARK    8  A    between atoms: _44  and  _46
REMARK    9  A    between atoms: _46  and  _47
REMARK   10  A    between atoms: _46  and  _49
REMARK   11  A    between atoms: _49  and  _50
REMARK   12  A    between atoms: _60  and  _62
REMARK   13  A    between atoms: _62  and  _63
REMARK   14  A    between atoms: _62  and  _65
REMARK   15  A    between atoms: _65  and  _66
REMARK   16  A    between atoms: _69  and  _71
REMARK   17  A    between atoms: _71  and  _72
REMARK   18  A    between atoms: _71  and  _74
REMARK   19  A    between atoms: _74  and  _75
REMARK   20  A    between atoms: _80  and  _81
REMARK   21  A    between atoms: _83  and  _85
REMARK   22  A    between atoms: _85  and  _86
REMARK   23  A    between atoms: _85  and  _88
REMARK   24  A    between atoms: _88  and  _89
REMARK   25  A    between atoms: _89  and  _90
REMARK   26  A    between atoms: _93  and  _95
REMARK   27  A    between atoms: _95  and  _96
REMARK   28  A    between atoms: _95  and  _98
REMARK   29  A    between atoms: _98  and  _99
REMARK   30  A    between atoms: _99  and  _100
REMARK   31  A    between atoms: _102  and  _104
REMARK   32  A    between atoms: _104  and  _105
REMARK   33  A    between atoms: _104  and  _107
REMARK   34  A    between atoms: _107  and  _108
REMARK   35  A    between atoms: _111  and  _113
REMARK   36  A    between atoms: _113  and  _114
REMARK   37  A    between atoms: _113  and  _116
REMARK   38  A    between atoms: _116  and  _117
REMARK   39  A    between atoms: _117  and  _118
REMARK   40  A    between atoms: _118  and  ZN_415
REMARK   41  A    between atoms: _121  and  _122
REMARK   42  A    between atoms: _127  and  _129
REMARK   43  A    between atoms: _129  and  _130
REMARK   44  A    between atoms: _129  and  _132
REMARK   45  A    between atoms: _132  and  _133
REMARK   46  A    between atoms: _139  and  _141
REMARK   47  A    between atoms: _141  and  _142
REMARK   48  A    between atoms: _141  and  _144
REMARK   49  A    between atoms: _144  and  _145
REMARK   50  A    between atoms: _145  and  _146
REMARK   51  A    between atoms: _146  and  _147
REMARK   52  A    between atoms: _156  and  _158
REMARK   53  A    between atoms: _158  and  _159
REMARK   54  A    between atoms: _158  and  _161
REMARK   55  A    between atoms: _161  and  _162
REMARK   56  A    between atoms: _167  and  _168
REMARK   57  A    between atoms: _170  and  _172
REMARK   58  A    between atoms: _172  and  _173
REMARK   59  A    between atoms: _172  and  _175
REMARK   60  A    between atoms: _175  and  _176
REMARK   61  A    between atoms: _178  and  _180
REMARK   62  A    between atoms: _180  and  _181
REMARK   63  A    between atoms: _180  and  _183
REMARK   64  A    between atoms: _183  and  _184
REMARK   65  A    between atoms: _189  and  _190
REMARK   66  A    between atoms: _192  and  _194
REMARK   67  A    between atoms: _194  and  _195
REMARK   68  A    between atoms: _194  and  _197
REMARK   69  A    between atoms: _197  and  _198
REMARK   70  A    between atoms: _201  and  _203
REMARK   71  A    between atoms: _203  and  _204
REMARK   72  A    between atoms: _203  and  _206
REMARK   73  A    between atoms: _206  and  _207
REMARK   74  A    between atoms: _210  and  _212
REMARK   75  A    between atoms: _212  and  _213
REMARK   76  A    between atoms: _212  and  _215
REMARK   77  A    between atoms: _215  and  _216
REMARK   78  A    between atoms: _216  and  _217
REMARK   79  A    between atoms: _217  and  _218
REMARK   80  A    between atoms: _227  and  _229
REMARK   81  A    between atoms: _229  and  _230
REMARK   82  A    between atoms: _232  and  _234
REMARK   83  A    between atoms: _234  and  _235
REMARK   84  A    between atoms: _234  and  _237
REMARK   85  A    between atoms: _237  and  _238
REMARK   86  A    between atoms: _241  and  _243
REMARK   87  A    between atoms: _243  and  _244
REMARK   88  A    between atoms: _243  and  _246
REMARK   89  A    between atoms: _246  and  _247
REMARK   90  A    between atoms: _250  and  _252
REMARK   91  A    between atoms: _252  and  _253
REMARK   92  A    between atoms: _252  and  _255
REMARK   93  A    between atoms: _255  and  _256
REMARK   94  A    between atoms: _262  and  _264
REMARK   95  A    between atoms: _264  and  _265
REMARK   96  A    between atoms: _264  and  _267
REMARK   97  A    between atoms: _267  and  _268
REMARK   98  A    between atoms: _268  and  _269
REMARK   99  A    between atoms: _269  and  _270
REMARK  100  A    between atoms: _279  and  _281
REMARK  101  A    between atoms: _281  and  _282
REMARK  102  A    between atoms: _281  and  _284
REMARK  103  A    between atoms: _284  and  _285
REMARK  104  A    between atoms: _295  and  _297
REMARK  105  A    between atoms: _297  and  _298
REMARK  106  A    between atoms: _297  and  _300
REMARK  107  A    between atoms: _300  and  _301
REMARK  108  A    between atoms: _306  and  _308
REMARK  109  A    between atoms: _308  and  _309
REMARK  110  A    between atoms: _308  and  _311
REMARK  111  A    between atoms: _311  and  _312
REMARK  112  A    between atoms: _316  and  ZN_415
REMARK  113  A    between atoms: _317  and  _319
REMARK  114  A    between atoms: _319  and  _320
REMARK  115  A    between atoms: _319  and  _322
REMARK  116  A    between atoms: _322  and  _323
REMARK  117  A    between atoms: _326  and  _328
REMARK  118  A    between atoms: _328  and  _329
REMARK  119  A    between atoms: _331  and  _333
REMARK  120  A    between atoms: _333  and  _334
REMARK  121  A    between atoms: _333  and  _336
REMARK  122  A    between atoms: _336  and  _337
REMARK  123  A    between atoms: _340  and  _342
REMARK  124  A    between atoms: _342  and  _343
REMARK  125  A    between atoms: _342  and  _345
REMARK  126  A    between atoms: _345  and  _346
REMARK  127  A    between atoms: _349  and  _351
REMARK  128  A    between atoms: _351  and  _352
REMARK  129  A    between atoms: _355  and  _357
REMARK  130  A    between atoms: _357  and  _358
REMARK  131  A    between atoms: _357  and  _360
REMARK  132  A    between atoms: _360  and  _361
REMARK  133  A    between atoms: _366  and  _367
REMARK  134  A    between atoms: _369  and  _371
REMARK  135  A    between atoms: _371  and  _372
REMARK  136  A    between atoms: _371  and  _374
REMARK  137  A    between atoms: _374  and  _375
REMARK  138  A    between atoms: _375  and  _376
REMARK  139  A    between atoms: _379  and  _381
REMARK  140  A    between atoms: _381  and  _382
REMARK  141  A    between atoms: _381  and  _384
REMARK  142  A    between atoms: _384  and  _385
REMARK  143  A    between atoms: _385  and  _386
REMARK  144  A    between atoms: _386  and  _387
REMARK  145  A    between atoms: _396  and  _398
REMARK  146  A    between atoms: _398  and  _399
REMARK  147  A    between atoms: _401  and  _403
REMARK  148  A    between atoms: _403  and  _404
REMARK  149  A    between atoms: _403  and  _406
REMARK  150  A    between atoms: _406  and  _407
REMARK  151  A    between atoms: _410  and  _412
REMARK  152  A    between atoms: _412  and  _413
REMARK                            x       y       z     vdW  Elec       q    Type
REMARK                         _______ _______ _______ _____ _____    ______ ____
ROOT
ATOM      1  O   HOH     1      30.104  75.882  13.172  0.00  0.00    +0.000 OA
ENDROOT
TORSDOF 0
REMARK  Name = ../refined-set-2016/3ddf/3ddf_pocket.pdb
REMARK  152 active torsions:
REMARK  status: ('A' for Active; 'I' for Inactive)
REMARK    1  A    between atoms: _1  and  _3
REMARK    2  A    between atoms: _14  and  _17
REMARK    3  A    between atoms: _17  and  _18
REMARK    4  A    between atoms: _25  and  _26
REMARK    5  A    between atoms: _33  and  _34
REMARK    6  A    between atoms: _39  and  _41
REMARK    7  A    between atoms: _41  and  _42
REMARK    8  A    between atoms: _44  and  _46
REMARK    9  A    between atoms: _46  and  _47
REMARK   10  A    between atoms: _46  and  _49
REMARK   11  A    between atoms: _49  and  _50
REMARK   12  A    between atoms: _60  and  _62
REMARK   13  A    between atoms: _62  and  _63
REMARK   14  A    between atoms: _62  and  _65
REMARK   15  A    between atoms: _65  and  _66
REMARK   16  A    between atoms: _69  and  _71
REMARK   17  A    between atoms: _71  and  _72
REMARK   18  A    between atoms: _71  and  _74
REMARK   19  A    between atoms: _74  and  _75
REMARK   20  A    between atoms: _80  and  _81
REMARK   21  A    between atoms: _83  and  _85
REMARK   22  A    between atoms: _85  and  _86
REMARK   23  A    between atoms: _85  and  _88
REMARK   24  A    between atoms: _88  and  _89
REMARK   25  A    between atoms: _89  and  _90
REMARK   26  A    between atoms: _93  and  _95
REMARK   27  A    between atoms: _95  and  _96
REMARK   28  A    between atoms: _95  and  _98
REMARK   29  A    between atoms: _98  and  _99
REMARK   30  A    between atoms: _99  and  _100
REMARK   31  A    between atoms: _102  and  _104
REMARK   32  A    between atoms: _104  and  _105
REMARK   33  A    between atoms: _104  and  _107
REMARK   34  A    between atoms: _107  and  _108
REMARK   35  A    between atoms: _111  and  _113
REMARK   36  A    between atoms: _113  and  _114
REMARK   37  A    between atoms: _113  and  _116
REMARK   38  A    between atoms: _116  and  _117
REMARK   39  A    between atoms: _117  and  _118
REMARK   40  A    between atoms: _118  and  ZN_415
REMARK   41  A    between atoms: _121  and  _122
REMARK   42  A    between atoms: _127  and  _129
REMARK   43  A    between atoms: _129  and  _130
REMARK   44  A    between atoms: _129  and  _132
REMARK   45  A    between atoms: _132  and  _133
REMARK   46  A    between atoms: _139  and  _141
REMARK   47  A    between atoms: _141  and  _142
REMARK   48  A    between atoms: _141  and  _144
REMARK   49  A    between atoms: _144  and  _145
REMARK   50  A    between atoms: _145  and  _146
REMARK   51  A    between atoms: _146  and  _147
REMARK   52  A    between atoms: _156  and  _158
REMARK   53  A    between atoms: _158  and  _159
REMARK   54  A    between atoms: _158  and  _161
REMARK   55  A    between atoms: _161  and  _162
REMARK   56  A    between atoms: _167  and  _168
REMARK   57  A    between atoms: _170  and  _172
REMARK   58  A    between atoms: _172  and  _173
REMARK   59  A    between atoms: _172  and  _175
REMARK   60  A    between atoms: _175  and  _176
REMARK   61  A    between atoms: _178  and  _180
REMARK   62  A    between atoms: _180  and  _181
REMARK   63  A    between atoms: _180  and  _183
REMARK   64  A    between atoms: _183  and  _184
REMARK   65  A    between atoms: _189  and  _190
REMARK   66  A    between atoms: _192  and  _194
REMARK   67  A    between atoms: _194  and  _195
REMARK   68  A    between atoms: _194  and  _197
REMARK   69  A    between atoms: _197  and  _198
REMARK   70  A    between atoms: _201  and  _203
REMARK   71  A    between atoms: _203  and  _204
REMARK   72  A    between atoms: _203  and  _206
REMARK   73  A    between atoms: _206  and  _207
REMARK   74  A    between atoms: _210  and  _212
REMARK   75  A    between atoms: _212  and  _213
REMARK   76  A    between atoms: _212  and  _215
REMARK   77  A    between atoms: _215  and  _216
REMARK   78  A    between atoms: _216  and  _217
REMARK   79  A    between atoms: _217  and  _218
REMARK   80  A    between atoms: _227  and  _229
REMARK   81  A    between atoms: _229  and  _230
REMARK   82  A    between atoms: _232  and  _234
REMARK   83  A    between atoms: _234  and  _235
REMARK   84  A    between atoms: _234  and  _237
REMARK   85  A    between atoms: _237  and  _238
REMARK   86  A    between atoms: _241  and  _243
REMARK   87  A    between atoms: _243  and  _244
REMARK   88  A    between atoms: _243  and  _246
REMARK   89  A    between atoms: _246  and  _247
REMARK   90  A    between atoms: _250  and  _252
REMARK   91  A    between atoms: _252  and  _253
REMARK   92  A    between atoms: _252  and  _255
REMARK   93  A    between atoms: _255  and  _256
REMARK   94  A    between atoms: _262  and  _264
REMARK   95  A    between atoms: _264  and  _265
REMARK   96  A    between atoms: _264  and  _267
REMARK   97  A    between atoms: _267  and  _268
REMARK   98  A    between atoms: _268  and  _269
REMARK   99  A    between atoms: _269  and  _270
REMARK  100  A    between atoms: _279  and  _281
REMARK  101  A    between atoms: _281  and  _282
REMARK  102  A    between atoms: _281  and  _284
REMARK  103  A    between atoms: _284  and  _285
REMARK  104  A    between atoms: _295  and  _297
REMARK  105  A    between atoms: _297  and  _298
REMARK  106  A    between atoms: _297  and  _300
REMARK  107  A    between atoms: _300  and  _301
REMARK  108  A    between atoms: _306  and  _308
REMARK  109  A    between atoms: _308  and  _309
REMARK  110  A    between atoms: _308  and  _311
REMARK  111  A    between atoms: _311  and  _312
REMARK  112  A    between atoms: _316  and  ZN_415
REMARK  113  A    between atoms: _317  and  _319
REMARK  114  A    between atoms: _319  and  _320
REMARK  115  A    between atoms: _319  and  _322
REMARK  116  A    between atoms: _322  and  _323
REMARK  117  A    between atoms: _326  and  _328
REMARK  118  A    between atoms: _328  and  _329
REMARK  119  A    between atoms: _331  and  _333
REMARK  120  A    between atoms: _333  and  _334
REMARK  121  A    between atoms: _333  and  _336
REMARK  122  A    between atoms: _336  and  _337
REMARK  123  A    between atoms: _340  and  _342
REMARK  124  A    between atoms: _342  and  _343
REMARK  125  A    between atoms: _342  and  _345
REMARK  126  A    between atoms: _345  and  _346
REMARK  127  A    between atoms: _349  and  _351
REMARK  128  A    between atoms: _351  and  _352
REMARK  129  A    between atoms: _355  and  _357
REMARK  130  A    between atoms: _357  and  _358
REMARK  131  A    between atoms: _357  and  _360
REMARK  132  A    between atoms: _360  and  _361
REMARK  133  A    between atoms: _366  and  _367
REMARK  134  A    between atoms: _369  and  _371
REMARK  135  A    between atoms: _371  and  _372
REMARK  136  A    between atoms: _371  and  _374
REMARK  137  A    between atoms: _374  and  _375
REMARK  138  A    between atoms: _375  and  _376
REMARK  139  A    between atoms: _379  and  _381
REMARK  140  A    between atoms: _381  and  _382
REMARK  141  A    between atoms: _381  and  _384
REMARK  142  A    between atoms: _384  and  _385
REMARK  143  A    between atoms: _385  and  _386
REMARK  144  A    between atoms: _386  and  _387
REMARK  145  A    between atoms: _396  and  _398
REMARK  146  A    between atoms: _398  and  _399
REMARK  147  A    between atoms: _401  and  _403
REMARK  148  A    between atoms: _403  and  _404
REMARK  149  A    between atoms: _403  and  _406
REMARK  150  A    between atoms: _406  and  _407
REMARK  151  A    between atoms: _410  and  _412
REMARK  152  A    between atoms: _412  and  _413
REMARK                            x       y       z     vdW  Elec       q    Type
REMARK                         _______ _______ _______ _____ _____    ______ ____
ROOT
ATOM      1  O   HOH     1      32.679  74.224  14.821  0.00  0.00    +0.000 OA
ENDROOT
TORSDOF 0
REMARK  Name = ../refined-set-2016/3ddf/3ddf_pocket.pdb
REMARK  152 active torsions:
REMARK  status: ('A' for Active; 'I' for Inactive)
REMARK    1  A    between atoms: _1  and  _3
REMARK    2  A    between atoms: _14  and  _17
REMARK    3  A    between atoms: _17  and  _18
REMARK    4  A    between atoms: _25  and  _26
REMARK    5  A    between atoms: _33  and  _34
REMARK    6  A    between atoms: _39  and  _41
REMARK    7  A    between atoms: _41  and  _42
REMARK    8  A    between atoms: _44  and  _46
REMARK    9  A    between atoms: _46  and  _47
REMARK   10  A    between atoms: _46  and  _49
REMARK   11  A    between atoms: _49  and  _50
REMARK   12  A    between atoms: _60  and  _62
REMARK   13  A    between atoms: _62  and  _63
REMARK   14  A    between atoms: _62  and  _65
REMARK   15  A    between atoms: _65  and  _66
REMARK   16  A    between atoms: _69  and  _71
REMARK   17  A    between atoms: _71  and  _72
REMARK   18  A    between atoms: _71  and  _74
REMARK   19  A    between atoms: _74  and  _75
REMARK   20  A    between atoms: _80  and  _81
REMARK   21  A    between atoms: _83  and  _85
REMARK   22  A    between atoms: _85  and  _86
REMARK   23  A    between atoms: _85  and  _88
REMARK   24  A    between atoms: _88  and  _89
REMARK   25  A    between atoms: _89  and  _90
REMARK   26  A    between atoms: _93  and  _95
REMARK   27  A    between atoms: _95  and  _96
REMARK   28  A    between atoms: _95  and  _98
REMARK   29  A    between atoms: _98  and  _99
REMARK   30  A    between atoms: _99  and  _100
REMARK   31  A    between atoms: _102  and  _104
REMARK   32  A    between atoms: _104  and  _105
REMARK   33  A    between atoms: _104  and  _107
REMARK   34  A    between atoms: _107  and  _108
REMARK   35  A    between atoms: _111  and  _113
REMARK   36  A    between atoms: _113  and  _114
REMARK   37  A    between atoms: _113  and  _116
REMARK   38  A    between atoms: _116  and  _117
REMARK   39  A    between atoms: _117  and  _118
REMARK   40  A    between atoms: _118  and  ZN_415
REMARK   41  A    between atoms: _121  and  _122
REMARK   42  A    between atoms: _127  and  _129
REMARK   43  A    between atoms: _129  and  _130
REMARK   44  A    between atoms: _129  and  _132
REMARK   45  A    between atoms: _132  and  _133
REMARK   46  A    between atoms: _139  and  _141
REMARK   47  A    between atoms: _141  and  _142
REMARK   48  A    between atoms: _141  and  _144
REMARK   49  A    between atoms: _144  and  _145
REMARK   50  A    between atoms: _145  and  _146
REMARK   51  A    between atoms: _146  and  _147
REMARK   52  A    between atoms: _156  and  _158
REMARK   53  A    between atoms: _158  and  _159
REMARK   54  A    between atoms: _158  and  _161
REMARK   55  A    between atoms: _161  and  _162
REMARK   56  A    between atoms: _167  and  _168
REMARK   57  A    between atoms: _170  and  _172
REMARK   58  A    between atoms: _172  and  _173
REMARK   59  A    between atoms: _172  and  _175
REMARK   60  A    between atoms: _175  and  _176
REMARK   61  A    between atoms: _178  and  _180
REMARK   62  A    between atoms: _180  and  _181
REMARK   63  A    between atoms: _180  and  _183
REMARK   64  A    between atoms: _183  and  _184
REMARK   65  A    between atoms: _189  and  _190
REMARK   66  A    between atoms: _192  and  _194
REMARK   67  A    between atoms: _194  and  _195
REMARK   68  A    between atoms: _194  and  _197
REMARK   69  A    between atoms: _197  and  _198
REMARK   70  A    between atoms: _201  and  _203
REMARK   71  A    between atoms: _203  and  _204
REMARK   72  A    between atoms: _203  and  _206
REMARK   73  A    between atoms: _206  and  _207
REMARK   74  A    between atoms: _210  and  _212
REMARK   75  A    between atoms: _212  and  _213
REMARK   76  A    between atoms: _212  and  _215
REMARK   77  A    between atoms: _215  and  _216
REMARK   78  A    between atoms: _216  and  _217
REMARK   79  A    between atoms: _217  and  _218
REMARK   80  A    between atoms: _227  and  _229
REMARK   81  A    between atoms: _229  and  _230
REMARK   82  A    between atoms: _232  and  _234
REMARK   83  A    between atoms: _234  and  _235
REMARK   84  A    between atoms: _234  and  _237
REMARK   85  A    between atoms: _237  and  _238
REMARK   86  A    between atoms: _241  and  _243
REMARK   87  A    between atoms: _243  and  _244
REMARK   88  A    between atoms: _243  and  _246
REMARK   89  A    between atoms: _246  and  _247
REMARK   90  A    between atoms: _250  and  _252
REMARK   91  A    between atoms: _252  and  _253
REMARK   92  A    between atoms: _252  and  _255
REMARK   93  A    between atoms: _255  and  _256
REMARK   94  A    between atoms: _262  and  _264
REMARK   95  A    between atoms: _264  and  _265
REMARK   96  A    between atoms: _264  and  _267
REMARK   97  A    between atoms: _267  and  _268
REMARK   98  A    between atoms: _268  and  _269
REMARK   99  A    between atoms: _269  and  _270
REMARK  100  A    between atoms: _279  and  _281
REMARK  101  A    between atoms: _281  and  _282
REMARK  102  A    between atoms: _281  and  _284
REMARK  103  A    between atoms: _284  and  _285
REMARK  104  A    between atoms: _295  and  _297
REMARK  105  A    between atoms: _297  and  _298
REMARK  106  A    between atoms: _297  and  _300
REMARK  107  A    between atoms: _300  and  _301
REMARK  108  A    between atoms: _306  and  _308
REMARK  109  A    between atoms: _308  and  _309
REMARK  110  A    between atoms: _308  and  _311
REMARK  111  A    between atoms: _311  and  _312
REMARK  112  A    between atoms: _316  and  ZN_415
REMARK  113  A    between atoms: _317  and  _319
REMARK  114  A    between atoms: _319  and  _320
REMARK  115  A    between atoms: _319  and  _322
REMARK  116  A    between atoms: _322  and  _323
REMARK  117  A    between atoms: _326  and  _328
REMARK  118  A    between atoms: _328  and  _329
REMARK  119  A    between atoms: _331  and  _333
REMARK  120  A    between atoms: _333  and  _334
REMARK  121  A    between atoms: _333  and  _336
REMARK  122  A    between atoms: _336  and  _337
REMARK  123  A    between atoms: _340  and  _342
REMARK  124  A    between atoms: _342  and  _343
REMARK  125  A    between atoms: _342  and  _345
REMARK  126  A    between atoms: _345  and  _346
REMARK  127  A    between atoms: _349  and  _351
REMARK  128  A    between atoms: _351  and  _352
REMARK  129  A    between atoms: _355  and  _357
REMARK  130  A    between atoms: _357  and  _358
REMARK  131  A    between atoms: _357  and  _360
REMARK  132  A    between atoms: _360  and  _361
REMARK  133  A    between atoms: _366  and  _367
REMARK  134  A    between atoms: _369  and  _371
REMARK  135  A    between atoms: _371  and  _372
REMARK  136  A    between atoms: _371  and  _374
REMARK  137  A    between atoms: _374  and  _375
REMARK  138  A    between atoms: _375  and  _376
REMARK  139  A    between atoms: _379  and  _381
REMARK  140  A    between atoms: _381  and  _382
REMARK  141  A    between atoms: _381  and  _384
REMARK  142  A    between atoms: _384  and  _385
REMARK  143  A    between atoms: _385  and  _386
REMARK  144  A    between atoms: _386  and  _387
REMARK  145  A    between atoms: _396  and  _398
REMARK  146  A    between atoms: _398  and  _399
REMARK  147  A    between atoms: _401  and  _403
REMARK  148  A    between atoms: _403  and  _404
REMARK  149  A    between atoms: _403  and  _406
REMARK  150  A    between atoms: _406  and  _407
REMARK  151  A    between atoms: _410  and  _412
REMARK  152  A    between atoms: _412  and  _413
REMARK                            x       y       z     vdW  Elec       q    Type
REMARK                         _______ _______ _______ _____ _____    ______ ____
ROOT
ATOM      1  O   HOH     1      32.416  73.506  17.961  0.00  0.00    +0.000 OA
ENDROOT
TORSDOF 0
REMARK  Name = ../refined-set-2016/3ddf/3ddf_pocket.pdb
REMARK  152 active torsions:
REMARK  status: ('A' for Active; 'I' for Inactive)
REMARK    1  A    between atoms: _1  and  _3
REMARK    2  A    between atoms: _14  and  _17
REMARK    3  A    between atoms: _17  and  _18
REMARK    4  A    between atoms: _25  and  _26
REMARK    5  A    between atoms: _33  and  _34
REMARK    6  A    between atoms: _39  and  _41
REMARK    7  A    between atoms: _41  and  _42
REMARK    8  A    between atoms: _44  and  _46
REMARK    9  A    between atoms: _46  and  _47
REMARK   10  A    between atoms: _46  and  _49
REMARK   11  A    between atoms: _49  and  _50
REMARK   12  A    between atoms: _60  and  _62
REMARK   13  A    between atoms: _62  and  _63
REMARK   14  A    between atoms: _62  and  _65
REMARK   15  A    between atoms: _65  and  _66
REMARK   16  A    between atoms: _69  and  _71
REMARK   17  A    between atoms: _71  and  _72
REMARK   18  A    between atoms: _71  and  _74
REMARK   19  A    between atoms: _74  and  _75
REMARK   20  A    between atoms: _80  and  _81
REMARK   21  A    between atoms: _83  and  _85
REMARK   22  A    between atoms: _85  and  _86
REMARK   23  A    between atoms: _85  and  _88
REMARK   24  A    between atoms: _88  and  _89
REMARK   25  A    between atoms: _89  and  _90
REMARK   26  A    between atoms: _93  and  _95
REMARK   27  A    between atoms: _95  and  _96
REMARK   28  A    between atoms: _95  and  _98
REMARK   29  A    between atoms: _98  and  _99
REMARK   30  A    between atoms: _99  and  _100
REMARK   31  A    between atoms: _102  and  _104
REMARK   32  A    between atoms: _104  and  _105
REMARK   33  A    between atoms: _104  and  _107
REMARK   34  A    between atoms: _107  and  _108
REMARK   35  A    between atoms: _111  and  _113
REMARK   36  A    between atoms: _113  and  _114
REMARK   37  A    between atoms: _113  and  _116
REMARK   38  A    between atoms: _116  and  _117
REMARK   39  A    between atoms: _117  and  _118
REMARK   40  A    between atoms: _118  and  ZN_415
REMARK   41  A    between atoms: _121  and  _122
REMARK   42  A    between atoms: _127  and  _129
REMARK   43  A    between atoms: _129  and  _130
REMARK   44  A    between atoms: _129  and  _132
REMARK   45  A    between atoms: _132  and  _133
REMARK   46  A    between atoms: _139  and  _141
REMARK   47  A    between atoms: _141  and  _142
REMARK   48  A    between atoms: _141  and  _144
REMARK   49  A    between atoms: _144  and  _145
REMARK   50  A    between atoms: _145  and  _146
REMARK   51  A    between atoms: _146  and  _147
REMARK   52  A    between atoms: _156  and  _158
REMARK   53  A    between atoms: _158  and  _159
REMARK   54  A    between atoms: _158  and  _161
REMARK   55  A    between atoms: _161  and  _162
REMARK   56  A    between atoms: _167  and  _168
REMARK   57  A    between atoms: _170  and  _172
REMARK   58  A    between atoms: _172  and  _173
REMARK   59  A    between atoms: _172  and  _175
REMARK   60  A    between atoms: _175  and  _176
REMARK   61  A    between atoms: _178  and  _180
REMARK   62  A    between atoms: _180  and  _181
REMARK   63  A    between atoms: _180  and  _183
REMARK   64  A    between atoms: _183  and  _184
REMARK   65  A    between atoms: _189  and  _190
REMARK   66  A    between atoms: _192  and  _194
REMARK   67  A    between atoms: _194  and  _195
REMARK   68  A    between atoms: _194  and  _197
REMARK   69  A    between atoms: _197  and  _198
REMARK   70  A    between atoms: _201  and  _203
REMARK   71  A    between atoms: _203  and  _204
REMARK   72  A    between atoms: _203  and  _206
REMARK   73  A    between atoms: _206  and  _207
REMARK   74  A    between atoms: _210  and  _212
REMARK   75  A    between atoms: _212  and  _213
REMARK   76  A    between atoms: _212  and  _215
REMARK   77  A    between atoms: _215  and  _216
REMARK   78  A    between atoms: _216  and  _217
REMARK   79  A    between atoms: _217  and  _218
REMARK   80  A    between atoms: _227  and  _229
REMARK   81  A    between atoms: _229  and  _230
REMARK   82  A    between atoms: _232  and  _234
REMARK   83  A    between atoms: _234  and  _235
REMARK   84  A    between atoms: _234  and  _237
REMARK   85  A    between atoms: _237  and  _238
REMARK   86  A    between atoms: _241  and  _243
REMARK   87  A    between atoms: _243  and  _244
REMARK   88  A    between atoms: _243  and  _246
REMARK   89  A    between atoms: _246  and  _247
REMARK   90  A    between atoms: _250  and  _252
REMARK   91  A    between atoms: _252  and  _253
REMARK   92  A    between atoms: _252  and  _255
REMARK   93  A    between atoms: _255  and  _256
REMARK   94  A    between atoms: _262  and  _264
REMARK   95  A    between atoms: _264  and  _265
REMARK   96  A    between atoms: _264  and  _267
REMARK   97  A    between atoms: _267  and  _268
REMARK   98  A    between atoms: _268  and  _269
REMARK   99  A    between atoms: _269  and  _270
REMARK  100  A    between atoms: _279  and  _281
REMARK  101  A    between atoms: _281  and  _282
REMARK  102  A    between atoms: _281  and  _284
REMARK  103  A    between atoms: _284  and  _285
REMARK  104  A    between atoms: _295  and  _297
REMARK  105  A    between atoms: _297  and  _298
REMARK  106  A    between atoms: _297  and  _300
REMARK  107  A    between atoms: _300  and  _301
REMARK  108  A    between atoms: _306  and  _308
REMARK  109  A    between atoms: _308  and  _309
REMARK  110  A    between atoms: _308  and  _311
REMARK  111  A    between atoms: _311  and  _312
REMARK  112  A    between atoms: _316  and  ZN_415
REMARK  113  A    between atoms: _317  and  _319
REMARK  114  A    between atoms: _319  and  _320
REMARK  115  A    between atoms: _319  and  _322
REMARK  116  A    between atoms: _322  and  _323
REMARK  117  A    between atoms: _326  and  _328
REMARK  118  A    between atoms: _328  and  _329
REMARK  119  A    between atoms: _331  and  _333
REMARK  120  A    between atoms: _333  and  _334
REMARK  121  A    between atoms: _333  and  _336
REMARK  122  A    between atoms: _336  and  _337
REMARK  123  A    between atoms: _340  and  _342
REMARK  124  A    between atoms: _342  and  _343
REMARK  125  A    between atoms: _342  and  _345
REMARK  126  A    between atoms: _345  and  _346
REMARK  127  A    between atoms: _349  and  _351
REMARK  128  A    between atoms: _351  and  _352
REMARK  129  A    between atoms: _355  and  _357
REMARK  130  A    between atoms: _357  and  _358
REMARK  131  A    between atoms: _357  and  _360
REMARK  132  A    between atoms: _360  and  _361
REMARK  133  A    between atoms: _366  and  _367
REMARK  134  A    between atoms: _369  and  _371
REMARK  135  A    between atoms: _371  and  _372
REMARK  136  A    between atoms: _371  and  _374
REMARK  137  A    between atoms: _374  and  _375
REMARK  138  A    between atoms: _375  and  _376
REMARK  139  A    between atoms: _379  and  _381
REMARK  140  A    between atoms: _381  and  _382
REMARK  141  A    between atoms: _381  and  _384
REMARK  142  A    between atoms: _384  and  _385
REMARK  143  A    between atoms: _385  and  _386
REMARK  144  A    between atoms: _386  and  _387
REMARK  145  A    between atoms: _396  and  _398
REMARK  146  A    between atoms: _398  and  _399
REMARK  147  A    between atoms: _401  and  _403
REMARK  148  A    between atoms: _403  and  _404
REMARK  149  A    between atoms: _403  and  _406
REMARK  150  A    between atoms: _406  and  _407
REMARK  151  A    between atoms: _410  and  _412
REMARK  152  A    between atoms: _412  and  _413
REMARK                            x       y       z     vdW  Elec       q    Type
REMARK                         _______ _______ _______ _____ _____    ______ ____
ROOT
ATOM      1  O   HOH     1      32.555  70.725  17.699  0.00  0.00    +0.000 OA
ENDROOT
TORSDOF 0
REMARK  Name = ../refined-set-2016/3ddf/3ddf_pocket.pdb
REMARK  152 active torsions:
REMARK  status: ('A' for Active; 'I' for Inactive)
REMARK    1  A    between atoms: _1  and  _3
REMARK    2  A    between atoms: _14  and  _17
REMARK    3  A    between atoms: _17  and  _18
REMARK    4  A    between atoms: _25  and  _26
REMARK    5  A    between atoms: _33  and  _34
REMARK    6  A    between atoms: _39  and  _41
REMARK    7  A    between atoms: _41  and  _42
REMARK    8  A    between atoms: _44  and  _46
REMARK    9  A    between atoms: _46  and  _47
REMARK   10  A    between atoms: _46  and  _49
REMARK   11  A    between atoms: _49  and  _50
REMARK   12  A    between atoms: _60  and  _62
REMARK   13  A    between atoms: _62  and  _63
REMARK   14  A    between atoms: _62  and  _65
REMARK   15  A    between atoms: _65  and  _66
REMARK   16  A    between atoms: _69  and  _71
REMARK   17  A    between atoms: _71  and  _72
REMARK   18  A    between atoms: _71  and  _74
REMARK   19  A    between atoms: _74  and  _75
REMARK   20  A    between atoms: _80  and  _81
REMARK   21  A    between atoms: _83  and  _85
REMARK   22  A    between atoms: _85  and  _86
REMARK   23  A    between atoms: _85  and  _88
REMARK   24  A    between atoms: _88  and  _89
REMARK   25  A    between atoms: _89  and  _90
REMARK   26  A    between atoms: _93  and  _95
REMARK   27  A    between atoms: _95  and  _96
REMARK   28  A    between atoms: _95  and  _98
REMARK   29  A    between atoms: _98  and  _99
REMARK   30  A    between atoms: _99  and  _100
REMARK   31  A    between atoms: _102  and  _104
REMARK   32  A    between atoms: _104  and  _105
REMARK   33  A    between atoms: _104  and  _107
REMARK   34  A    between atoms: _107  and  _108
REMARK   35  A    between atoms: _111  and  _113
REMARK   36  A    between atoms: _113  and  _114
REMARK   37  A    between atoms: _113  and  _116
REMARK   38  A    between atoms: _116  and  _117
REMARK   39  A    between atoms: _117  and  _118
REMARK   40  A    between atoms: _118  and  ZN_415
REMARK   41  A    between atoms: _121  and  _122
REMARK   42  A    between atoms: _127  and  _129
REMARK   43  A    between atoms: _129  and  _130
REMARK   44  A    between atoms: _129  and  _132
REMARK   45  A    between atoms: _132  and  _133
REMARK   46  A    between atoms: _139  and  _141
REMARK   47  A    between atoms: _141  and  _142
REMARK   48  A    between atoms: _141  and  _144
REMARK   49  A    between atoms: _144  and  _145
REMARK   50  A    between atoms: _145  and  _146
REMARK   51  A    between atoms: _146  and  _147
REMARK   52  A    between atoms: _156  and  _158
REMARK   53  A    between atoms: _158  and  _159
REMARK   54  A    between atoms: _158  and  _161
REMARK   55  A    between atoms: _161  and  _162
REMARK   56  A    between atoms: _167  and  _168
REMARK   57  A    between atoms: _170  and  _172
REMARK   58  A    between atoms: _172  and  _173
REMARK   59  A    between atoms: _172  and  _175
REMARK   60  A    between atoms: _175  and  _176
REMARK   61  A    between atoms: _178  and  _180
REMARK   62  A    between atoms: _180  and  _181
REMARK   63  A    between atoms: _180  and  _183
REMARK   64  A    between atoms: _183  and  _184
REMARK   65  A    between atoms: _189  and  _190
REMARK   66  A    between atoms: _192  and  _194
REMARK   67  A    between atoms: _194  and  _195
REMARK   68  A    between atoms: _194  and  _197
REMARK   69  A    between atoms: _197  and  _198
REMARK   70  A    between atoms: _201  and  _203
REMARK   71  A    between atoms: _203  and  _204
REMARK   72  A    between atoms: _203  and  _206
REMARK   73  A    between atoms: _206  and  _207
REMARK   74  A    between atoms: _210  and  _212
REMARK   75  A    between atoms: _212  and  _213
REMARK   76  A    between atoms: _212  and  _215
REMARK   77  A    between atoms: _215  and  _216
REMARK   78  A    between atoms: _216  and  _217
REMARK   79  A    between atoms: _217  and  _218
REMARK   80  A    between atoms: _227  and  _229
REMARK   81  A    between atoms: _229  and  _230
REMARK   82  A    between atoms: _232  and  _234
REMARK   83  A    between atoms: _234  and  _235
REMARK   84  A    between atoms: _234  and  _237
REMARK   85  A    between atoms: _237  and  _238
REMARK   86  A    between atoms: _241  and  _243
REMARK   87  A    between atoms: _243  and  _244
REMARK   88  A    between atoms: _243  and  _246
REMARK   89  A    between atoms: _246  and  _247
REMARK   90  A    between atoms: _250  and  _252
REMARK   91  A    between atoms: _252  and  _253
REMARK   92  A    between atoms: _252  and  _255
REMARK   93  A    between atoms: _255  and  _256
REMARK   94  A    between atoms: _262  and  _264
REMARK   95  A    between atoms: _264  and  _265
REMARK   96  A    between atoms: _264  and  _267
REMARK   97  A    between atoms: _267  and  _268
REMARK   98  A    between atoms: _268  and  _269
REMARK   99  A    between atoms: _269  and  _270
REMARK  100  A    between atoms: _279  and  _281
REMARK  101  A    between atoms: _281  and  _282
REMARK  102  A    between atoms: _281  and  _284
REMARK  103  A    between atoms: _284  and  _285
REMARK  104  A    between atoms: _295  and  _297
REMARK  105  A    between atoms: _297  and  _298
REMARK  106  A    between atoms: _297  and  _300
REMARK  107  A    between atoms: _300  and  _301
REMARK  108  A    between atoms: _306  and  _308
REMARK  109  A    between atoms: _308  and  _309
REMARK  110  A    between atoms: _308  and  _311
REMARK  111  A    between atoms: _311  and  _312
REMARK  112  A    between atoms: _316  and  ZN_415
REMARK  113  A    between atoms: _317  and  _319
REMARK  114  A    between atoms: _319  and  _320
REMARK  115  A    between atoms: _319  and  _322
REMARK  116  A    between atoms: _322  and  _323
REMARK  117  A    between atoms: _326  and  _328
REMARK  118  A    between atoms: _328  and  _329
REMARK  119  A    between atoms: _331  and  _333
REMARK  120  A    between atoms: _333  and  _334
REMARK  121  A    between atoms: _333  and  _336
REMARK  122  A    between atoms: _336  and  _337
REMARK  123  A    between atoms: _340  and  _342
REMARK  124  A    between atoms: _342  and  _343
REMARK  125  A    between atoms: _342  and  _345
REMARK  126  A    between atoms: _345  and  _346
REMARK  127  A    between atoms: _349  and  _351
REMARK  128  A    between atoms: _351  and  _352
REMARK  129  A    between atoms: _355  and  _357
REMARK  130  A    between atoms: _357  and  _358
REMARK  131  A    between atoms: _357  and  _360
REMARK  132  A    between atoms: _360  and  _361
REMARK  133  A    between atoms: _366  and  _367
REMARK  134  A    between atoms: _369  and  _371
REMARK  135  A    between atoms: _371  and  _372
REMARK  136  A    between atoms: _371  and  _374
REMARK  137  A    between atoms: _374  and  _375
REMARK  138  A    between atoms: _375  and  _376
REMARK  139  A    between atoms: _379  and  _381
REMARK  140  A    between atoms: _381  and  _382
REMARK  141  A    between atoms: _381  and  _384
REMARK  142  A    between atoms: _384  and  _385
REMARK  143  A    between atoms: _385  and  _386
REMARK  144  A    between atoms: _386  and  _387
REMARK  145  A    between atoms: _396  and  _398
REMARK  146  A    between atoms: _398  and  _399
REMARK  147  A    between atoms: _401  and  _403
REMARK  148  A    between atoms: _403  and  _404
REMARK  149  A    between atoms: _403  and  _406
REMARK  150  A    between atoms: _406  and  _407
REMARK  151  A    between atoms: _410  and  _412
REMARK  152  A    between atoms: _412  and  _413
REMARK                            x       y       z     vdW  Elec       q    Type
REMARK                         _______ _______ _______ _____ _____    ______ ____
ROOT
ATOM      1  O   HOH     1      33.750  68.657  16.822  0.00  0.00    +0.000 OA
ENDROOT
TORSDOF 0
REMARK  Name = ../refined-set-2016/3ddf/3ddf_pocket.pdb
REMARK  152 active torsions:
REMARK  status: ('A' for Active; 'I' for Inactive)
REMARK    1  A    between atoms: _1  and  _3
REMARK    2  A    between atoms: _14  and  _17
REMARK    3  A    between atoms: _17  and  _18
REMARK    4  A    between atoms: _25  and  _26
REMARK    5  A    between atoms: _33  and  _34
REMARK    6  A    between atoms: _39  and  _41
REMARK    7  A    between atoms: _41  and  _42
REMARK    8  A    between atoms: _44  and  _46
REMARK    9  A    between atoms: _46  and  _47
REMARK   10  A    between atoms: _46  and  _49
REMARK   11  A    between atoms: _49  and  _50
REMARK   12  A    between atoms: _60  and  _62
REMARK   13  A    between atoms: _62  and  _63
REMARK   14  A    between atoms: _62  and  _65
REMARK   15  A    between atoms: _65  and  _66
REMARK   16  A    between atoms: _69  and  _71
REMARK   17  A    between atoms: _71  and  _72
REMARK   18  A    between atoms: _71  and  _74
REMARK   19  A    between atoms: _74  and  _75
REMARK   20  A    between atoms: _80  and  _81
REMARK   21  A    between atoms: _83  and  _85
REMARK   22  A    between atoms: _85  and  _86
REMARK   23  A    between atoms: _85  and  _88
REMARK   24  A    between atoms: _88  and  _89
REMARK   25  A    between atoms: _89  and  _90
REMARK   26  A    between atoms: _93  and  _95
REMARK   27  A    between atoms: _95  and  _96
REMARK   28  A    between atoms: _95  and  _98
REMARK   29  A    between atoms: _98  and  _99
REMARK   30  A    between atoms: _99  and  _100
REMARK   31  A    between atoms: _102  and  _104
REMARK   32  A    between atoms: _104  and  _105
REMARK   33  A    between atoms: _104  and  _107
REMARK   34  A    between atoms: _107  and  _108
REMARK   35  A    between atoms: _111  and  _113
REMARK   36  A    between atoms: _113  and  _114
REMARK   37  A    between atoms: _113  and  _116
REMARK   38  A    between atoms: _116  and  _117
REMARK   39  A    between atoms: _117  and  _118
REMARK   40  A    between atoms: _118  and  ZN_415
REMARK   41  A    between atoms: _121  and  _122
REMARK   42  A    between atoms: _127  and  _129
REMARK   43  A    between atoms: _129  and  _130
REMARK   44  A    between atoms: _129  and  _132
REMARK   45  A    between atoms: _132  and  _133
REMARK   46  A    between atoms: _139  and  _141
REMARK   47  A    between atoms: _141  and  _142
REMARK   48  A    between atoms: _141  and  _144
REMARK   49  A    between atoms: _144  and  _145
REMARK   50  A    between atoms: _145  and  _146
REMARK   51  A    between atoms: _146  and  _147
REMARK   52  A    between atoms: _156  and  _158
REMARK   53  A    between atoms: _158  and  _159
REMARK   54  A    between atoms: _158  and  _161
REMARK   55  A    between atoms: _161  and  _162
REMARK   56  A    between atoms: _167  and  _168
REMARK   57  A    between atoms: _170  and  _172
REMARK   58  A    between atoms: _172  and  _173
REMARK   59  A    between atoms: _172  and  _175
REMARK   60  A    between atoms: _175  and  _176
REMARK   61  A    between atoms: _178  and  _180
REMARK   62  A    between atoms: _180  and  _181
REMARK   63  A    between atoms: _180  and  _183
REMARK   64  A    between atoms: _183  and  _184
REMARK   65  A    between atoms: _189  and  _190
REMARK   66  A    between atoms: _192  and  _194
REMARK   67  A    between atoms: _194  and  _195
REMARK   68  A    between atoms: _194  and  _197
REMARK   69  A    between atoms: _197  and  _198
REMARK   70  A    between atoms: _201  and  _203
REMARK   71  A    between atoms: _203  and  _204
REMARK   72  A    between atoms: _203  and  _206
REMARK   73  A    between atoms: _206  and  _207
REMARK   74  A    between atoms: _210  and  _212
REMARK   75  A    between atoms: _212  and  _213
REMARK   76  A    between atoms: _212  and  _215
REMARK   77  A    between atoms: _215  and  _216
REMARK   78  A    between atoms: _216  and  _217
REMARK   79  A    between atoms: _217  and  _218
REMARK   80  A    between atoms: _227  and  _229
REMARK   81  A    between atoms: _229  and  _230
REMARK   82  A    between atoms: _232  and  _234
REMARK   83  A    between atoms: _234  and  _235
REMARK   84  A    between atoms: _234  and  _237
REMARK   85  A    between atoms: _237  and  _238
REMARK   86  A    between atoms: _241  and  _243
REMARK   87  A    between atoms: _243  and  _244
REMARK   88  A    between atoms: _243  and  _246
REMARK   89  A    between atoms: _246  and  _247
REMARK   90  A    between atoms: _250  and  _252
REMARK   91  A    between atoms: _252  and  _253
REMARK   92  A    between atoms: _252  and  _255
REMARK   93  A    between atoms: _255  and  _256
REMARK   94  A    between atoms: _262  and  _264
REMARK   95  A    between atoms: _264  and  _265
REMARK   96  A    between atoms: _264  and  _267
REMARK   97  A    between atoms: _267  and  _268
REMARK   98  A    between atoms: _268  and  _269
REMARK   99  A    between atoms: _269  and  _270
REMARK  100  A    between atoms: _279  and  _281
REMARK  101  A    between atoms: _281  and  _282
REMARK  102  A    between atoms: _281  and  _284
REMARK  103  A    between atoms: _284  and  _285
REMARK  104  A    between atoms: _295  and  _297
REMARK  105  A    between atoms: _297  and  _298
REMARK  106  A    between atoms: _297  and  _300
REMARK  107  A    between atoms: _300  and  _301
REMARK  108  A    between atoms: _306  and  _308
REMARK  109  A    between atoms: _308  and  _309
REMARK  110  A    between atoms: _308  and  _311
REMARK  111  A    between atoms: _311  and  _312
REMARK  112  A    between atoms: _316  and  ZN_415
REMARK  113  A    between atoms: _317  and  _319
REMARK  114  A    between atoms: _319  and  _320
REMARK  115  A    between atoms: _319  and  _322
REMARK  116  A    between atoms: _322  and  _323
REMARK  117  A    between atoms: _326  and  _328
REMARK  118  A    between atoms: _328  and  _329
REMARK  119  A    between atoms: _331  and  _333
REMARK  120  A    between atoms: _333  and  _334
REMARK  121  A    between atoms: _333  and  _336
REMARK  122  A    between atoms: _336  and  _337
REMARK  123  A    between atoms: _340  and  _342
REMARK  124  A    between atoms: _342  and  _343
REMARK  125  A    between atoms: _342  and  _345
REMARK  126  A    between atoms: _345  and  _346
REMARK  127  A    between atoms: _349  and  _351
REMARK  128  A    between atoms: _351  and  _352
REMARK  129  A    between atoms: _355  and  _357
REMARK  130  A    between atoms: _357  and  _358
REMARK  131  A    between atoms: _357  and  _360
REMARK  132  A    between atoms: _360  and  _361
REMARK  133  A    between atoms: _366  and  _367
REMARK  134  A    between atoms: _369  and  _371
REMARK  135  A    between atoms: _371  and  _372
REMARK  136  A    between atoms: _371  and  _374
REMARK  137  A    between atoms: _374  and  _375
REMARK  138  A    between atoms: _375  and  _376
REMARK  139  A    between atoms: _379  and  _381
REMARK  140  A    between atoms: _381  and  _382
REMARK  141  A    between atoms: _381  and  _384
REMARK  142  A    between atoms: _384  and  _385
REMARK  143  A    between atoms: _385  and  _386
REMARK  144  A    between atoms: _386  and  _387
REMARK  145  A    between atoms: _396  and  _398
REMARK  146  A    between atoms: _398  and  _399
REMARK  147  A    between atoms: _401  and  _403
REMARK  148  A    between atoms: _403  and  _404
REMARK  149  A    between atoms: _403  and  _406
REMARK  150  A    between atoms: _406  and  _407
REMARK  151  A    between atoms: _410  and  _412
REMARK  152  A    between atoms: _412  and  _413
REMARK                            x       y       z     vdW  Elec       q    Type
REMARK                         _______ _______ _______ _____ _____    ______ ____
ROOT
ATOM      1  O   HOH     1      33.069  62.902   0.011  0.00  0.00    +0.000 OA
ENDROOT
TORSDOF 0
REMARK  Name = ../refined-set-2016/3ddf/3ddf_pocket.pdb
REMARK  152 active torsions:
REMARK  status: ('A' for Active; 'I' for Inactive)
REMARK    1  A    between atoms: _1  and  _3
REMARK    2  A    between atoms: _14  and  _17
REMARK    3  A    between atoms: _17  and  _18
REMARK    4  A    between atoms: _25  and  _26
REMARK    5  A    between atoms: _33  and  _34
REMARK    6  A    between atoms: _39  and  _41
REMARK    7  A    between atoms: _41  and  _42
REMARK    8  A    between atoms: _44  and  _46
REMARK    9  A    between atoms: _46  and  _47
REMARK   10  A    between atoms: _46  and  _49
REMARK   11  A    between atoms: _49  and  _50
REMARK   12  A    between atoms: _60  and  _62
REMARK   13  A    between atoms: _62  and  _63
REMARK   14  A    between atoms: _62  and  _65
REMARK   15  A    between atoms: _65  and  _66
REMARK   16  A    between atoms: _69  and  _71
REMARK   17  A    between atoms: _71  and  _72
REMARK   18  A    between atoms: _71  and  _74
REMARK   19  A    between atoms: _74  and  _75
REMARK   20  A    between atoms: _80  and  _81
REMARK   21  A    between atoms: _83  and  _85
REMARK   22  A    between atoms: _85  and  _86
REMARK   23  A    between atoms: _85  and  _88
REMARK   24  A    between atoms: _88  and  _89
REMARK   25  A    between atoms: _89  and  _90
REMARK   26  A    between atoms: _93  and  _95
REMARK   27  A    between atoms: _95  and  _96
REMARK   28  A    between atoms: _95  and  _98
REMARK   29  A    between atoms: _98  and  _99
REMARK   30  A    between atoms: _99  and  _100
REMARK   31  A    between atoms: _102  and  _104
REMARK   32  A    between atoms: _104  and  _105
REMARK   33  A    between atoms: _104  and  _107
REMARK   34  A    between atoms: _107  and  _108
REMARK   35  A    between atoms: _111  and  _113
REMARK   36  A    between atoms: _113  and  _114
REMARK   37  A    between atoms: _113  and  _116
REMARK   38  A    between atoms: _116  and  _117
REMARK   39  A    between atoms: _117  and  _118
REMARK   40  A    between atoms: _118  and  ZN_415
REMARK   41  A    between atoms: _121  and  _122
REMARK   42  A    between atoms: _127  and  _129
REMARK   43  A    between atoms: _129  and  _130
REMARK   44  A    between atoms: _129  and  _132
REMARK   45  A    between atoms: _132  and  _133
REMARK   46  A    between atoms: _139  and  _141
REMARK   47  A    between atoms: _141  and  _142
REMARK   48  A    between atoms: _141  and  _144
REMARK   49  A    between atoms: _144  and  _145
REMARK   50  A    between atoms: _145  and  _146
REMARK   51  A    between atoms: _146  and  _147
REMARK   52  A    between atoms: _156  and  _158
REMARK   53  A    between atoms: _158  and  _159
REMARK   54  A    between atoms: _158  and  _161
REMARK   55  A    between atoms: _161  and  _162
REMARK   56  A    between atoms: _167  and  _168
REMARK   57  A    between atoms: _170  and  _172
REMARK   58  A    between atoms: _172  and  _173
REMARK   59  A    between atoms: _172  and  _175
REMARK   60  A    between atoms: _175  and  _176
REMARK   61  A    between atoms: _178  and  _180
REMARK   62  A    between atoms: _180  and  _181
REMARK   63  A    between atoms: _180  and  _183
REMARK   64  A    between atoms: _183  and  _184
REMARK   65  A    between atoms: _189  and  _190
REMARK   66  A    between atoms: _192  and  _194
REMARK   67  A    between atoms: _194  and  _195
REMARK   68  A    between atoms: _194  and  _197
REMARK   69  A    between atoms: _197  and  _198
REMARK   70  A    between atoms: _201  and  _203
REMARK   71  A    between atoms: _203  and  _204
REMARK   72  A    between atoms: _203  and  _206
REMARK   73  A    between atoms: _206  and  _207
REMARK   74  A    between atoms: _210  and  _212
REMARK   75  A    between atoms: _212  and  _213
REMARK   76  A    between atoms: _212  and  _215
REMARK   77  A    between atoms: _215  and  _216
REMARK   78  A    between atoms: _216  and  _217
REMARK   79  A    between atoms: _217  and  _218
REMARK   80  A    between atoms: _227  and  _229
REMARK   81  A    between atoms: _229  and  _230
REMARK   82  A    between atoms: _232  and  _234
REMARK   83  A    between atoms: _234  and  _235
REMARK   84  A    between atoms: _234  and  _237
REMARK   85  A    between atoms: _237  and  _238
REMARK   86  A    between atoms: _241  and  _243
REMARK   87  A    between atoms: _243  and  _244
REMARK   88  A    between atoms: _243  and  _246
REMARK   89  A    between atoms: _246  and  _247
REMARK   90  A    between atoms: _250  and  _252
REMARK   91  A    between atoms: _252  and  _253
REMARK   92  A    between atoms: _252  and  _255
REMARK   93  A    between atoms: _255  and  _256
REMARK   94  A    between atoms: _262  and  _264
REMARK   95  A    between atoms: _264  and  _265
REMARK   96  A    between atoms: _264  and  _267
REMARK   97  A    between atoms: _267  and  _268
REMARK   98  A    between atoms: _268  and  _269
REMARK   99  A    between atoms: _269  and  _270
REMARK  100  A    between atoms: _279  and  _281
REMARK  101  A    between atoms: _281  and  _282
REMARK  102  A    between atoms: _281  and  _284
REMARK  103  A    between atoms: _284  and  _285
REMARK  104  A    between atoms: _295  and  _297
REMARK  105  A    between atoms: _297  and  _298
REMARK  106  A    between atoms: _297  and  _300
REMARK  107  A    between atoms: _300  and  _301
REMARK  108  A    between atoms: _306  and  _308
REMARK  109  A    between atoms: _308  and  _309
REMARK  110  A    between atoms: _308  and  _311
REMARK  111  A    between atoms: _311  and  _312
REMARK  112  A    between atoms: _316  and  ZN_415
REMARK  113  A    between atoms: _317  and  _319
REMARK  114  A    between atoms: _319  and  _320
REMARK  115  A    between atoms: _319  and  _322
REMARK  116  A    between atoms: _322  and  _323
REMARK  117  A    between atoms: _326  and  _328
REMARK  118  A    between atoms: _328  and  _329
REMARK  119  A    between atoms: _331  and  _333
REMARK  120  A    between atoms: _333  and  _334
REMARK  121  A    between atoms: _333  and  _336
REMARK  122  A    between atoms: _336  and  _337
REMARK  123  A    between atoms: _340  and  _342
REMARK  124  A    between atoms: _342  and  _343
REMARK  125  A    between atoms: _342  and  _345
REMARK  126  A    between atoms: _345  and  _346
REMARK  127  A    between atoms: _349  and  _351
REMARK  128  A    between atoms: _351  and  _352
REMARK  129  A    between atoms: _355  and  _357
REMARK  130  A    between atoms: _357  and  _358
REMARK  131  A    between atoms: _357  and  _360
REMARK  132  A    between atoms: _360  and  _361
REMARK  133  A    between atoms: _366  and  _367
REMARK  134  A    between atoms: _369  and  _371
REMARK  135  A    between atoms: _371  and  _372
REMARK  136  A    between atoms: _371  and  _374
REMARK  137  A    between atoms: _374  and  _375
REMARK  138  A    between atoms: _375  and  _376
REMARK  139  A    between atoms: _379  and  _381
REMARK  140  A    between atoms: _381  and  _382
REMARK  141  A    between atoms: _381  and  _384
REMARK  142  A    between atoms: _384  and  _385
REMARK  143  A    between atoms: _385  and  _386
REMARK  144  A    between atoms: _386  and  _387
REMARK  145  A    between atoms: _396  and  _398
REMARK  146  A    between atoms: _398  and  _399
REMARK  147  A    between atoms: _401  and  _403
REMARK  148  A    between atoms: _403  and  _404
REMARK  149  A    between atoms: _403  and  _406
REMARK  150  A    between atoms: _406  and  _407
REMARK  151  A    between atoms: _410  and  _412
REMARK  152  A    between atoms: _412  and  _413
REMARK                            x       y       z     vdW  Elec       q    Type
REMARK                         _______ _______ _______ _____ _____    ______ ____
ROOT
ATOM      1  O   HOH     1      37.899  59.057  11.002  0.00  0.00    +0.000 OA
ENDROOT
TORSDOF 0
REMARK  Name = ../refined-set-2016/3ddf/3ddf_pocket.pdb
REMARK  152 active torsions:
REMARK  status: ('A' for Active; 'I' for Inactive)
REMARK    1  A    between atoms: _1  and  _3
REMARK    2  A    between atoms: _14  and  _17
REMARK    3  A    between atoms: _17  and  _18
REMARK    4  A    between atoms: _25  and  _26
REMARK    5  A    between atoms: _33  and  _34
REMARK    6  A    between atoms: _39  and  _41
REMARK    7  A    between atoms: _41  and  _42
REMARK    8  A    between atoms: _44  and  _46
REMARK    9  A    between atoms: _46  and  _47
REMARK   10  A    between atoms: _46  and  _49
REMARK   11  A    between atoms: _49  and  _50
REMARK   12  A    between atoms: _60  and  _62
REMARK   13  A    between atoms: _62  and  _63
REMARK   14  A    between atoms: _62  and  _65
REMARK   15  A    between atoms: _65  and  _66
REMARK   16  A    between atoms: _69  and  _71
REMARK   17  A    between atoms: _71  and  _72
REMARK   18  A    between atoms: _71  and  _74
REMARK   19  A    between atoms: _74  and  _75
REMARK   20  A    between atoms: _80  and  _81
REMARK   21  A    between atoms: _83  and  _85
REMARK   22  A    between atoms: _85  and  _86
REMARK   23  A    between atoms: _85  and  _88
REMARK   24  A    between atoms: _88  and  _89
REMARK   25  A    between atoms: _89  and  _90
REMARK   26  A    between atoms: _93  and  _95
REMARK   27  A    between atoms: _95  and  _96
REMARK   28  A    between atoms: _95  and  _98
REMARK   29  A    between atoms: _98  and  _99
REMARK   30  A    between atoms: _99  and  _100
REMARK   31  A    between atoms: _102  and  _104
REMARK   32  A    between atoms: _104  and  _105
REMARK   33  A    between atoms: _104  and  _107
REMARK   34  A    between atoms: _107  and  _108
REMARK   35  A    between atoms: _111  and  _113
REMARK   36  A    between atoms: _113  and  _114
REMARK   37  A    between atoms: _113  and  _116
REMARK   38  A    between atoms: _116  and  _117
REMARK   39  A    between atoms: _117  and  _118
REMARK   40  A    between atoms: _118  and  ZN_415
REMARK   41  A    between atoms: _121  and  _122
REMARK   42  A    between atoms: _127  and  _129
REMARK   43  A    between atoms: _129  and  _130
REMARK   44  A    between atoms: _129  and  _132
REMARK   45  A    between atoms: _132  and  _133
REMARK   46  A    between atoms: _139  and  _141
REMARK   47  A    between atoms: _141  and  _142
REMARK   48  A    between atoms: _141  and  _144
REMARK   49  A    between atoms: _144  and  _145
REMARK   50  A    between atoms: _145  and  _146
REMARK   51  A    between atoms: _146  and  _147
REMARK   52  A    between atoms: _156  and  _158
REMARK   53  A    between atoms: _158  and  _159
REMARK   54  A    between atoms: _158  and  _161
REMARK   55  A    between atoms: _161  and  _162
REMARK   56  A    between atoms: _167  and  _168
REMARK   57  A    between atoms: _170  and  _172
REMARK   58  A    between atoms: _172  and  _173
REMARK   59  A    between atoms: _172  and  _175
REMARK   60  A    between atoms: _175  and  _176
REMARK   61  A    between atoms: _178  and  _180
REMARK   62  A    between atoms: _180  and  _181
REMARK   63  A    between atoms: _180  and  _183
REMARK   64  A    between atoms: _183  and  _184
REMARK   65  A    between atoms: _189  and  _190
REMARK   66  A    between atoms: _192  and  _194
REMARK   67  A    between atoms: _194  and  _195
REMARK   68  A    between atoms: _194  and  _197
REMARK   69  A    between atoms: _197  and  _198
REMARK   70  A    between atoms: _201  and  _203
REMARK   71  A    between atoms: _203  and  _204
REMARK   72  A    between atoms: _203  and  _206
REMARK   73  A    between atoms: _206  and  _207
REMARK   74  A    between atoms: _210  and  _212
REMARK   75  A    between atoms: _212  and  _213
REMARK   76  A    between atoms: _212  and  _215
REMARK   77  A    between atoms: _215  and  _216
REMARK   78  A    between atoms: _216  and  _217
REMARK   79  A    between atoms: _217  and  _218
REMARK   80  A    between atoms: _227  and  _229
REMARK   81  A    between atoms: _229  and  _230
REMARK   82  A    between atoms: _232  and  _234
REMARK   83  A    between atoms: _234  and  _235
REMARK   84  A    between atoms: _234  and  _237
REMARK   85  A    between atoms: _237  and  _238
REMARK   86  A    between atoms: _241  and  _243
REMARK   87  A    between atoms: _243  and  _244
REMARK   88  A    between atoms: _243  and  _246
REMARK   89  A    between atoms: _246  and  _247
REMARK   90  A    between atoms: _250  and  _252
REMARK   91  A    between atoms: _252  and  _253
REMARK   92  A    between atoms: _252  and  _255
REMARK   93  A    between atoms: _255  and  _256
REMARK   94  A    between atoms: _262  and  _264
REMARK   95  A    between atoms: _264  and  _265
REMARK   96  A    between atoms: _264  and  _267
REMARK   97  A    between atoms: _267  and  _268
REMARK   98  A    between atoms: _268  and  _269
REMARK   99  A    between atoms: _269  and  _270
REMARK  100  A    between atoms: _279  and  _281
REMARK  101  A    between atoms: _281  and  _282
REMARK  102  A    between atoms: _281  and  _284
REMARK  103  A    between atoms: _284  and  _285
REMARK  104  A    between atoms: _295  and  _297
REMARK  105  A    between atoms: _297  and  _298
REMARK  106  A    between atoms: _297  and  _300
REMARK  107  A    between atoms: _300  and  _301
REMARK  108  A    between atoms: _306  and  _308
REMARK  109  A    between atoms: _308  and  _309
REMARK  110  A    between atoms: _308  and  _311
REMARK  111  A    between atoms: _311  and  _312
REMARK  112  A    between atoms: _316  and  ZN_415
REMARK  113  A    between atoms: _317  and  _319
REMARK  114  A    between atoms: _319  and  _320
REMARK  115  A    between atoms: _319  and  _322
REMARK  116  A    between atoms: _322  and  _323
REMARK  117  A    between atoms: _326  and  _328
REMARK  118  A    between atoms: _328  and  _329
REMARK  119  A    between atoms: _331  and  _333
REMARK  120  A    between atoms: _333  and  _334
REMARK  121  A    between atoms: _333  and  _336
REMARK  122  A    between atoms: _336  and  _337
REMARK  123  A    between atoms: _340  and  _342
REMARK  124  A    between atoms: _342  and  _343
REMARK  125  A    between atoms: _342  and  _345
REMARK  126  A    between atoms: _345  and  _346
REMARK  127  A    between atoms: _349  and  _351
REMARK  128  A    between atoms: _351  and  _352
REMARK  129  A    between atoms: _355  and  _357
REMARK  130  A    between atoms: _357  and  _358
REMARK  131  A    between atoms: _357  and  _360
REMARK  132  A    between atoms: _360  and  _361
REMARK  133  A    between atoms: _366  and  _367
REMARK  134  A    between atoms: _369  and  _371
REMARK  135  A    between atoms: _371  and  _372
REMARK  136  A    between atoms: _371  and  _374
REMARK  137  A    between atoms: _374  and  _375
REMARK  138  A    between atoms: _375  and  _376
REMARK  139  A    between atoms: _379  and  _381
REMARK  140  A    between atoms: _381  and  _382
REMARK  141  A    between atoms: _381  and  _384
REMARK  142  A    between atoms: _384  and  _385
REMARK  143  A    between atoms: _385  and  _386
REMARK  144  A    between atoms: _386  and  _387
REMARK  145  A    between atoms: _396  and  _398
REMARK  146  A    between atoms: _398  and  _399
REMARK  147  A    between atoms: _401  and  _403
REMARK  148  A    between atoms: _403  and  _404
REMARK  149  A    between atoms: _403  and  _406
REMARK  150  A    between atoms: _406  and  _407
REMARK  151  A    between atoms: _410  and  _412
REMARK  152  A    between atoms: _412  and  _413
REMARK                            x       y       z     vdW  Elec       q    Type
REMARK                         _______ _______ _______ _____ _____    ______ ____
ROOT
ATOM      1  O   HOH     1      38.722  62.456   8.362  0.00  0.00    +0.000 OA
ENDROOT
TORSDOF 0
REMARK  Name = ../refined-set-2016/3ddf/3ddf_pocket.pdb
REMARK  152 active torsions:
REMARK  status: ('A' for Active; 'I' for Inactive)
REMARK    1  A    between atoms: _1  and  _3
REMARK    2  A    between atoms: _14  and  _17
REMARK    3  A    between atoms: _17  and  _18
REMARK    4  A    between atoms: _25  and  _26
REMARK    5  A    between atoms: _33  and  _34
REMARK    6  A    between atoms: _39  and  _41
REMARK    7  A    between atoms: _41  and  _42
REMARK    8  A    between atoms: _44  and  _46
REMARK    9  A    between atoms: _46  and  _47
REMARK   10  A    between atoms: _46  and  _49
REMARK   11  A    between atoms: _49  and  _50
REMARK   12  A    between atoms: _60  and  _62
REMARK   13  A    between atoms: _62  and  _63
REMARK   14  A    between atoms: _62  and  _65
REMARK   15  A    between atoms: _65  and  _66
REMARK   16  A    between atoms: _69  and  _71
REMARK   17  A    between atoms: _71  and  _72
REMARK   18  A    between atoms: _71  and  _74
REMARK   19  A    between atoms: _74  and  _75
REMARK   20  A    between atoms: _80  and  _81
REMARK   21  A    between atoms: _83  and  _85
REMARK   22  A    between atoms: _85  and  _86
REMARK   23  A    between atoms: _85  and  _88
REMARK   24  A    between atoms: _88  and  _89
REMARK   25  A    between atoms: _89  and  _90
REMARK   26  A    between atoms: _93  and  _95
REMARK   27  A    between atoms: _95  and  _96
REMARK   28  A    between atoms: _95  and  _98
REMARK   29  A    between atoms: _98  and  _99
REMARK   30  A    between atoms: _99  and  _100
REMARK   31  A    between atoms: _102  and  _104
REMARK   32  A    between atoms: _104  and  _105
REMARK   33  A    between atoms: _104  and  _107
REMARK   34  A    between atoms: _107  and  _108
REMARK   35  A    between atoms: _111  and  _113
REMARK   36  A    between atoms: _113  and  _114
REMARK   37  A    between atoms: _113  and  _116
REMARK   38  A    between atoms: _116  and  _117
REMARK   39  A    between atoms: _117  and  _118
REMARK   40  A    between atoms: _118  and  ZN_415
REMARK   41  A    between atoms: _121  and  _122
REMARK   42  A    between atoms: _127  and  _129
REMARK   43  A    between atoms: _129  and  _130
REMARK   44  A    between atoms: _129  and  _132
REMARK   45  A    between atoms: _132  and  _133
REMARK   46  A    between atoms: _139  and  _141
REMARK   47  A    between atoms: _141  and  _142
REMARK   48  A    between atoms: _141  and  _144
REMARK   49  A    between atoms: _144  and  _145
REMARK   50  A    between atoms: _145  and  _146
REMARK   51  A    between atoms: _146  and  _147
REMARK   52  A    between atoms: _156  and  _158
REMARK   53  A    between atoms: _158  and  _159
REMARK   54  A    between atoms: _158  and  _161
REMARK   55  A    between atoms: _161  and  _162
REMARK   56  A    between atoms: _167  and  _168
REMARK   57  A    between atoms: _170  and  _172
REMARK   58  A    between atoms: _172  and  _173
REMARK   59  A    between atoms: _172  and  _175
REMARK   60  A    between atoms: _175  and  _176
REMARK   61  A    between atoms: _178  and  _180
REMARK   62  A    between atoms: _180  and  _181
REMARK   63  A    between atoms: _180  and  _183
REMARK   64  A    between atoms: _183  and  _184
REMARK   65  A    between atoms: _189  and  _190
REMARK   66  A    between atoms: _192  and  _194
REMARK   67  A    between atoms: _194  and  _195
REMARK   68  A    between atoms: _194  and  _197
REMARK   69  A    between atoms: _197  and  _198
REMARK   70  A    between atoms: _201  and  _203
REMARK   71  A    between atoms: _203  and  _204
REMARK   72  A    between atoms: _203  and  _206
REMARK   73  A    between atoms: _206  and  _207
REMARK   74  A    between atoms: _210  and  _212
REMARK   75  A    between atoms: _212  and  _213
REMARK   76  A    between atoms: _212  and  _215
REMARK   77  A    between atoms: _215  and  _216
REMARK   78  A    between atoms: _216  and  _217
REMARK   79  A    between atoms: _217  and  _218
REMARK   80  A    between atoms: _227  and  _229
REMARK   81  A    between atoms: _229  and  _230
REMARK   82  A    between atoms: _232  and  _234
REMARK   83  A    between atoms: _234  and  _235
REMARK   84  A    between atoms: _234  and  _237
REMARK   85  A    between atoms: _237  and  _238
REMARK   86  A    between atoms: _241  and  _243
REMARK   87  A    between atoms: _243  and  _244
REMARK   88  A    between atoms: _243  and  _246
REMARK   89  A    between atoms: _246  and  _247
REMARK   90  A    between atoms: _250  and  _252
REMARK   91  A    between atoms: _252  and  _253
REMARK   92  A    between atoms: _252  and  _255
REMARK   93  A    between atoms: _255  and  _256
REMARK   94  A    between atoms: _262  and  _264
REMARK   95  A    between atoms: _264  and  _265
REMARK   96  A    between atoms: _264  and  _267
REMARK   97  A    between atoms: _267  and  _268
REMARK   98  A    between atoms: _268  and  _269
REMARK   99  A    between atoms: _269  and  _270
REMARK  100  A    between atoms: _279  and  _281
REMARK  101  A    between atoms: _281  and  _282
REMARK  102  A    between atoms: _281  and  _284
REMARK  103  A    between atoms: _284  and  _285
REMARK  104  A    between atoms: _295  and  _297
REMARK  105  A    between atoms: _297  and  _298
REMARK  106  A    between atoms: _297  and  _300
REMARK  107  A    between atoms: _300  and  _301
REMARK  108  A    between atoms: _306  and  _308
REMARK  109  A    between atoms: _308  and  _309
REMARK  110  A    between atoms: _308  and  _311
REMARK  111  A    between atoms: _311  and  _312
REMARK  112  A    between atoms: _316  and  ZN_415
REMARK  113  A    between atoms: _317  and  _319
REMARK  114  A    between atoms: _319  and  _320
REMARK  115  A    between atoms: _319  and  _322
REMARK  116  A    between atoms: _322  and  _323
REMARK  117  A    between atoms: _326  and  _328
REMARK  118  A    between atoms: _328  and  _329
REMARK  119  A    between atoms: _331  and  _333
REMARK  120  A    between atoms: _333  and  _334
REMARK  121  A    between atoms: _333  and  _336
REMARK  122  A    between atoms: _336  and  _337
REMARK  123  A    between atoms: _340  and  _342
REMARK  124  A    between atoms: _342  and  _343
REMARK  125  A    between atoms: _342  and  _345
REMARK  126  A    between atoms: _345  and  _346
REMARK  127  A    between atoms: _349  and  _351
REMARK  128  A    between atoms: _351  and  _352
REMARK  129  A    between atoms: _355  and  _357
REMARK  130  A    between atoms: _357  and  _358
REMARK  131  A    between atoms: _357  and  _360
REMARK  132  A    between atoms: _360  and  _361
REMARK  133  A    between atoms: _366  and  _367
REMARK  134  A    between atoms: _369  and  _371
REMARK  135  A    between atoms: _371  and  _372
REMARK  136  A    between atoms: _371  and  _374
REMARK  137  A    between atoms: _374  and  _375
REMARK  138  A    between atoms: _375  and  _376
REMARK  139  A    between atoms: _379  and  _381
REMARK  140  A    between atoms: _381  and  _382
REMARK  141  A    between atoms: _381  and  _384
REMARK  142  A    between atoms: _384  and  _385
REMARK  143  A    between atoms: _385  and  _386
REMARK  144  A    between atoms: _386  and  _387
REMARK  145  A    between atoms: _396  and  _398
REMARK  146  A    between atoms: _398  and  _399
REMARK  147  A    between atoms: _401  and  _403
REMARK  148  A    between atoms: _403  and  _404
REMARK  149  A    between atoms: _403  and  _406
REMARK  150  A    between atoms: _406  and  _407
REMARK  151  A    between atoms: _410  and  _412
REMARK  152  A    between atoms: _412  and  _413
REMARK                            x       y       z     vdW  Elec       q    Type
REMARK                         _______ _______ _______ _____ _____    ______ ____
ROOT
ATOM      1  O   HOH     1      40.222  62.842   6.008  0.00  0.00    +0.000 OA
ENDROOT
TORSDOF 0
REMARK  Name = ../refined-set-2016/3ddf/3ddf_pocket.pdb
REMARK  152 active torsions:
REMARK  status: ('A' for Active; 'I' for Inactive)
REMARK    1  A    between atoms: _1  and  _3
REMARK    2  A    between atoms: _14  and  _17
REMARK    3  A    between atoms: _17  and  _18
REMARK    4  A    between atoms: _25  and  _26
REMARK    5  A    between atoms: _33  and  _34
REMARK    6  A    between atoms: _39  and  _41
REMARK    7  A    between atoms: _41  and  _42
REMARK    8  A    between atoms: _44  and  _46
REMARK    9  A    between atoms: _46  and  _47
REMARK   10  A    between atoms: _46  and  _49
REMARK   11  A    between atoms: _49  and  _50
REMARK   12  A    between atoms: _60  and  _62
REMARK   13  A    between atoms: _62  and  _63
REMARK   14  A    between atoms: _62  and  _65
REMARK   15  A    between atoms: _65  and  _66
REMARK   16  A    between atoms: _69  and  _71
REMARK   17  A    between atoms: _71  and  _72
REMARK   18  A    between atoms: _71  and  _74
REMARK   19  A    between atoms: _74  and  _75
REMARK   20  A    between atoms: _80  and  _81
REMARK   21  A    between atoms: _83  and  _85
REMARK   22  A    between atoms: _85  and  _86
REMARK   23  A    between atoms: _85  and  _88
REMARK   24  A    between atoms: _88  and  _89
REMARK   25  A    between atoms: _89  and  _90
REMARK   26  A    between atoms: _93  and  _95
REMARK   27  A    between atoms: _95  and  _96
REMARK   28  A    between atoms: _95  and  _98
REMARK   29  A    between atoms: _98  and  _99
REMARK   30  A    between atoms: _99  and  _100
REMARK   31  A    between atoms: _102  and  _104
REMARK   32  A    between atoms: _104  and  _105
REMARK   33  A    between atoms: _104  and  _107
REMARK   34  A    between atoms: _107  and  _108
REMARK   35  A    between atoms: _111  and  _113
REMARK   36  A    between atoms: _113  and  _114
REMARK   37  A    between atoms: _113  and  _116
REMARK   38  A    between atoms: _116  and  _117
REMARK   39  A    between atoms: _117  and  _118
REMARK   40  A    between atoms: _118  and  ZN_415
REMARK   41  A    between atoms: _121  and  _122
REMARK   42  A    between atoms: _127  and  _129
REMARK   43  A    between atoms: _129  and  _130
REMARK   44  A    between atoms: _129  and  _132
REMARK   45  A    between atoms: _132  and  _133
REMARK   46  A    between atoms: _139  and  _141
REMARK   47  A    between atoms: _141  and  _142
REMARK   48  A    between atoms: _141  and  _144
REMARK   49  A    between atoms: _144  and  _145
REMARK   50  A    between atoms: _145  and  _146
REMARK   51  A    between atoms: _146  and  _147
REMARK   52  A    between atoms: _156  and  _158
REMARK   53  A    between atoms: _158  and  _159
REMARK   54  A    between atoms: _158  and  _161
REMARK   55  A    between atoms: _161  and  _162
REMARK   56  A    between atoms: _167  and  _168
REMARK   57  A    between atoms: _170  and  _172
REMARK   58  A    between atoms: _172  and  _173
REMARK   59  A    between atoms: _172  and  _175
REMARK   60  A    between atoms: _175  and  _176
REMARK   61  A    between atoms: _178  and  _180
REMARK   62  A    between atoms: _180  and  _181
REMARK   63  A    between atoms: _180  and  _183
REMARK   64  A    between atoms: _183  and  _184
REMARK   65  A    between atoms: _189  and  _190
REMARK   66  A    between atoms: _192  and  _194
REMARK   67  A    between atoms: _194  and  _195
REMARK   68  A    between atoms: _194  and  _197
REMARK   69  A    between atoms: _197  and  _198
REMARK   70  A    between atoms: _201  and  _203
REMARK   71  A    between atoms: _203  and  _204
REMARK   72  A    between atoms: _203  and  _206
REMARK   73  A    between atoms: _206  and  _207
REMARK   74  A    between atoms: _210  and  _212
REMARK   75  A    between atoms: _212  and  _213
REMARK   76  A    between atoms: _212  and  _215
REMARK   77  A    between atoms: _215  and  _216
REMARK   78  A    between atoms: _216  and  _217
REMARK   79  A    between atoms: _217  and  _218
REMARK   80  A    between atoms: _227  and  _229
REMARK   81  A    between atoms: _229  and  _230
REMARK   82  A    between atoms: _232  and  _234
REMARK   83  A    between atoms: _234  and  _235
REMARK   84  A    between atoms: _234  and  _237
REMARK   85  A    between atoms: _237  and  _238
REMARK   86  A    between atoms: _241  and  _243
REMARK   87  A    between atoms: _243  and  _244
REMARK   88  A    between atoms: _243  and  _246
REMARK   89  A    between atoms: _246  and  _247
REMARK   90  A    between atoms: _250  and  _252
REMARK   91  A    between atoms: _252  and  _253
REMARK   92  A    between atoms: _252  and  _255
REMARK   93  A    between atoms: _255  and  _256
REMARK   94  A    between atoms: _262  and  _264
REMARK   95  A    between atoms: _264  and  _265
REMARK   96  A    between atoms: _264  and  _267
REMARK   97  A    between atoms: _267  and  _268
REMARK   98  A    between atoms: _268  and  _269
REMARK   99  A    between atoms: _269  and  _270
REMARK  100  A    between atoms: _279  and  _281
REMARK  101  A    between atoms: _281  and  _282
REMARK  102  A    between atoms: _281  and  _284
REMARK  103  A    between atoms: _284  and  _285
REMARK  104  A    between atoms: _295  and  _297
REMARK  105  A    between atoms: _297  and  _298
REMARK  106  A    between atoms: _297  and  _300
REMARK  107  A    between atoms: _300  and  _301
REMARK  108  A    between atoms: _306  and  _308
REMARK  109  A    between atoms: _308  and  _309
REMARK  110  A    between atoms: _308  and  _311
REMARK  111  A    between atoms: _311  and  _312
REMARK  112  A    between atoms: _316  and  ZN_415
REMARK  113  A    between atoms: _317  and  _319
REMARK  114  A    between atoms: _319  and  _320
REMARK  115  A    between atoms: _319  and  _322
REMARK  116  A    between atoms: _322  and  _323
REMARK  117  A    between atoms: _326  and  _328
REMARK  118  A    between atoms: _328  and  _329
REMARK  119  A    between atoms: _331  and  _333
REMARK  120  A    between atoms: _333  and  _334
REMARK  121  A    between atoms: _333  and  _336
REMARK  122  A    between atoms: _336  and  _337
REMARK  123  A    between atoms: _340  and  _342
REMARK  124  A    between atoms: _342  and  _343
REMARK  125  A    between atoms: _342  and  _345
REMARK  126  A    between atoms: _345  and  _346
REMARK  127  A    between atoms: _349  and  _351
REMARK  128  A    between atoms: _351  and  _352
REMARK  129  A    between atoms: _355  and  _357
REMARK  130  A    between atoms: _357  and  _358
REMARK  131  A    between atoms: _357  and  _360
REMARK  132  A    between atoms: _360  and  _361
REMARK  133  A    between atoms: _366  and  _367
REMARK  134  A    between atoms: _369  and  _371
REMARK  135  A    between atoms: _371  and  _372
REMARK  136  A    between atoms: _371  and  _374
REMARK  137  A    between atoms: _374  and  _375
REMARK  138  A    between atoms: _375  and  _376
REMARK  139  A    between atoms: _379  and  _381
REMARK  140  A    between atoms: _381  and  _382
REMARK  141  A    between atoms: _381  and  _384
REMARK  142  A    between atoms: _384  and  _385
REMARK  143  A    between atoms: _385  and  _386
REMARK  144  A    between atoms: _386  and  _387
REMARK  145  A    between atoms: _396  and  _398
REMARK  146  A    between atoms: _398  and  _399
REMARK  147  A    between atoms: _401  and  _403
REMARK  148  A    between atoms: _403  and  _404
REMARK  149  A    between atoms: _403  and  _406
REMARK  150  A    between atoms: _406  and  _407
REMARK  151  A    between atoms: _410  and  _412
REMARK  152  A    between atoms: _412  and  _413
REMARK                            x       y       z     vdW  Elec       q    Type
REMARK                         _______ _______ _______ _____ _____    ______ ____
ROOT
ATOM      1  O   HOH     1      28.047  67.000   6.869  0.00  0.00    +0.000 OA
ENDROOT
TORSDOF 0
REMARK  Name = ../refined-set-2016/3ddf/3ddf_pocket.pdb
REMARK  152 active torsions:
REMARK  status: ('A' for Active; 'I' for Inactive)
REMARK    1  A    between atoms: _1  and  _3
REMARK    2  A    between atoms: _14  and  _17
REMARK    3  A    between atoms: _17  and  _18
REMARK    4  A    between atoms: _25  and  _26
REMARK    5  A    between atoms: _33  and  _34
REMARK    6  A    between atoms: _39  and  _41
REMARK    7  A    between atoms: _41  and  _42
REMARK    8  A    between atoms: _44  and  _46
REMARK    9  A    between atoms: _46  and  _47
REMARK   10  A    between atoms: _46  and  _49
REMARK   11  A    between atoms: _49  and  _50
REMARK   12  A    between atoms: _60  and  _62
REMARK   13  A    between atoms: _62  and  _63
REMARK   14  A    between atoms: _62  and  _65
REMARK   15  A    between atoms: _65  and  _66
REMARK   16  A    between atoms: _69  and  _71
REMARK   17  A    between atoms: _71  and  _72
REMARK   18  A    between atoms: _71  and  _74
REMARK   19  A    between atoms: _74  and  _75
REMARK   20  A    between atoms: _80  and  _81
REMARK   21  A    between atoms: _83  and  _85
REMARK   22  A    between atoms: _85  and  _86
REMARK   23  A    between atoms: _85  and  _88
REMARK   24  A    between atoms: _88  and  _89
REMARK   25  A    between atoms: _89  and  _90
REMARK   26  A    between atoms: _93  and  _95
REMARK   27  A    between atoms: _95  and  _96
REMARK   28  A    between atoms: _95  and  _98
REMARK   29  A    between atoms: _98  and  _99
REMARK   30  A    between atoms: _99  and  _100
REMARK   31  A    between atoms: _102  and  _104
REMARK   32  A    between atoms: _104  and  _105
REMARK   33  A    between atoms: _104  and  _107
REMARK   34  A    between atoms: _107  and  _108
REMARK   35  A    between atoms: _111  and  _113
REMARK   36  A    between atoms: _113  and  _114
REMARK   37  A    between atoms: _113  and  _116
REMARK   38  A    between atoms: _116  and  _117
REMARK   39  A    between atoms: _117  and  _118
REMARK   40  A    between atoms: _118  and  ZN_415
REMARK   41  A    between atoms: _121  and  _122
REMARK   42  A    between atoms: _127  and  _129
REMARK   43  A    between atoms: _129  and  _130
REMARK   44  A    between atoms: _129  and  _132
REMARK   45  A    between atoms: _132  and  _133
REMARK   46  A    between atoms: _139  and  _141
REMARK   47  A    between atoms: _141  and  _142
REMARK   48  A    between atoms: _141  and  _144
REMARK   49  A    between atoms: _144  and  _145
REMARK   50  A    between atoms: _145  and  _146
REMARK   51  A    between atoms: _146  and  _147
REMARK   52  A    between atoms: _156  and  _158
REMARK   53  A    between atoms: _158  and  _159
REMARK   54  A    between atoms: _158  and  _161
REMARK   55  A    between atoms: _161  and  _162
REMARK   56  A    between atoms: _167  and  _168
REMARK   57  A    between atoms: _170  and  _172
REMARK   58  A    between atoms: _172  and  _173
REMARK   59  A    between atoms: _172  and  _175
REMARK   60  A    between atoms: _175  and  _176
REMARK   61  A    between atoms: _178  and  _180
REMARK   62  A    between atoms: _180  and  _181
REMARK   63  A    between atoms: _180  and  _183
REMARK   64  A    between atoms: _183  and  _184
REMARK   65  A    between atoms: _189  and  _190
REMARK   66  A    between atoms: _192  and  _194
REMARK   67  A    between atoms: _194  and  _195
REMARK   68  A    between atoms: _194  and  _197
REMARK   69  A    between atoms: _197  and  _198
REMARK   70  A    between atoms: _201  and  _203
REMARK   71  A    between atoms: _203  and  _204
REMARK   72  A    between atoms: _203  and  _206
REMARK   73  A    between atoms: _206  and  _207
REMARK   74  A    between atoms: _210  and  _212
REMARK   75  A    between atoms: _212  and  _213
REMARK   76  A    between atoms: _212  and  _215
REMARK   77  A    between atoms: _215  and  _216
REMARK   78  A    between atoms: _216  and  _217
REMARK   79  A    between atoms: _217  and  _218
REMARK   80  A    between atoms: _227  and  _229
REMARK   81  A    between atoms: _229  and  _230
REMARK   82  A    between atoms: _232  and  _234
REMARK   83  A    between atoms: _234  and  _235
REMARK   84  A    between atoms: _234  and  _237
REMARK   85  A    between atoms: _237  and  _238
REMARK   86  A    between atoms: _241  and  _243
REMARK   87  A    between atoms: _243  and  _244
REMARK   88  A    between atoms: _243  and  _246
REMARK   89  A    between atoms: _246  and  _247
REMARK   90  A    between atoms: _250  and  _252
REMARK   91  A    between atoms: _252  and  _253
REMARK   92  A    between atoms: _252  and  _255
REMARK   93  A    between atoms: _255  and  _256
REMARK   94  A    between atoms: _262  and  _264
REMARK   95  A    between atoms: _264  and  _265
REMARK   96  A    between atoms: _264  and  _267
REMARK   97  A    between atoms: _267  and  _268
REMARK   98  A    between atoms: _268  and  _269
REMARK   99  A    between atoms: _269  and  _270
REMARK  100  A    between atoms: _279  and  _281
REMARK  101  A    between atoms: _281  and  _282
REMARK  102  A    between atoms: _281  and  _284
REMARK  103  A    between atoms: _284  and  _285
REMARK  104  A    between atoms: _295  and  _297
REMARK  105  A    between atoms: _297  and  _298
REMARK  106  A    between atoms: _297  and  _300
REMARK  107  A    between atoms: _300  and  _301
REMARK  108  A    between atoms: _306  and  _308
REMARK  109  A    between atoms: _308  and  _309
REMARK  110  A    between atoms: _308  and  _311
REMARK  111  A    between atoms: _311  and  _312
REMARK  112  A    between atoms: _316  and  ZN_415
REMARK  113  A    between atoms: _317  and  _319
REMARK  114  A    between atoms: _319  and  _320
REMARK  115  A    between atoms: _319  and  _322
REMARK  116  A    between atoms: _322  and  _323
REMARK  117  A    between atoms: _326  and  _328
REMARK  118  A    between atoms: _328  and  _329
REMARK  119  A    between atoms: _331  and  _333
REMARK  120  A    between atoms: _333  and  _334
REMARK  121  A    between atoms: _333  and  _336
REMARK  122  A    between atoms: _336  and  _337
REMARK  123  A    between atoms: _340  and  _342
REMARK  124  A    between atoms: _342  and  _343
REMARK  125  A    between atoms: _342  and  _345
REMARK  126  A    between atoms: _345  and  _346
REMARK  127  A    between atoms: _349  and  _351
REMARK  128  A    between atoms: _351  and  _352
REMARK  129  A    between atoms: _355  and  _357
REMARK  130  A    between atoms: _357  and  _358
REMARK  131  A    between atoms: _357  and  _360
REMARK  132  A    between atoms: _360  and  _361
REMARK  133  A    between atoms: _366  and  _367
REMARK  134  A    between atoms: _369  and  _371
REMARK  135  A    between atoms: _371  and  _372
REMARK  136  A    between atoms: _371  and  _374
REMARK  137  A    between atoms: _374  and  _375
REMARK  138  A    between atoms: _375  and  _376
REMARK  139  A    between atoms: _379  and  _381
REMARK  140  A    between atoms: _381  and  _382
REMARK  141  A    between atoms: _381  and  _384
REMARK  142  A    between atoms: _384  and  _385
REMARK  143  A    between atoms: _385  and  _386
REMARK  144  A    between atoms: _386  and  _387
REMARK  145  A    between atoms: _396  and  _398
REMARK  146  A    between atoms: _398  and  _399
REMARK  147  A    between atoms: _401  and  _403
REMARK  148  A    between atoms: _403  and  _404
REMARK  149  A    between atoms: _403  and  _406
REMARK  150  A    between atoms: _406  and  _407
REMARK  151  A    between atoms: _410  and  _412
REMARK  152  A    between atoms: _412  and  _413
REMARK                            x       y       z     vdW  Elec       q    Type
REMARK                         _______ _______ _______ _____ _____    ______ ____
ROOT
ATOM      1  O   HOH     1      24.187  63.597   7.331  0.00  0.00    +0.000 OA
ENDROOT
TORSDOF 0
REMARK  Name = ../refined-set-2016/3ddf/3ddf_pocket.pdb
REMARK  152 active torsions:
REMARK  status: ('A' for Active; 'I' for Inactive)
REMARK    1  A    between atoms: _1  and  _3
REMARK    2  A    between atoms: _14  and  _17
REMARK    3  A    between atoms: _17  and  _18
REMARK    4  A    between atoms: _25  and  _26
REMARK    5  A    between atoms: _33  and  _34
REMARK    6  A    between atoms: _39  and  _41
REMARK    7  A    between atoms: _41  and  _42
REMARK    8  A    between atoms: _44  and  _46
REMARK    9  A    between atoms: _46  and  _47
REMARK   10  A    between atoms: _46  and  _49
REMARK   11  A    between atoms: _49  and  _50
REMARK   12  A    between atoms: _60  and  _62
REMARK   13  A    between atoms: _62  and  _63
REMARK   14  A    between atoms: _62  and  _65
REMARK   15  A    between atoms: _65  and  _66
REMARK   16  A    between atoms: _69  and  _71
REMARK   17  A    between atoms: _71  and  _72
REMARK   18  A    between atoms: _71  and  _74
REMARK   19  A    between atoms: _74  and  _75
REMARK   20  A    between atoms: _80  and  _81
REMARK   21  A    between atoms: _83  and  _85
REMARK   22  A    between atoms: _85  and  _86
REMARK   23  A    between atoms: _85  and  _88
REMARK   24  A    between atoms: _88  and  _89
REMARK   25  A    between atoms: _89  and  _90
REMARK   26  A    between atoms: _93  and  _95
REMARK   27  A    between atoms: _95  and  _96
REMARK   28  A    between atoms: _95  and  _98
REMARK   29  A    between atoms: _98  and  _99
REMARK   30  A    between atoms: _99  and  _100
REMARK   31  A    between atoms: _102  and  _104
REMARK   32  A    between atoms: _104  and  _105
REMARK   33  A    between atoms: _104  and  _107
REMARK   34  A    between atoms: _107  and  _108
REMARK   35  A    between atoms: _111  and  _113
REMARK   36  A    between atoms: _113  and  _114
REMARK   37  A    between atoms: _113  and  _116
REMARK   38  A    between atoms: _116  and  _117
REMARK   39  A    between atoms: _117  and  _118
REMARK   40  A    between atoms: _118  and  ZN_415
REMARK   41  A    between atoms: _121  and  _122
REMARK   42  A    between atoms: _127  and  _129
REMARK   43  A    between atoms: _129  and  _130
REMARK   44  A    between atoms: _129  and  _132
REMARK   45  A    between atoms: _132  and  _133
REMARK   46  A    between atoms: _139  and  _141
REMARK   47  A    between atoms: _141  and  _142
REMARK   48  A    between atoms: _141  and  _144
REMARK   49  A    between atoms: _144  and  _145
REMARK   50  A    between atoms: _145  and  _146
REMARK   51  A    between atoms: _146  and  _147
REMARK   52  A    between atoms: _156  and  _158
REMARK   53  A    between atoms: _158  and  _159
REMARK   54  A    between atoms: _158  and  _161
REMARK   55  A    between atoms: _161  and  _162
REMARK   56  A    between atoms: _167  and  _168
REMARK   57  A    between atoms: _170  and  _172
REMARK   58  A    between atoms: _172  and  _173
REMARK   59  A    between atoms: _172  and  _175
REMARK   60  A    between atoms: _175  and  _176
REMARK   61  A    between atoms: _178  and  _180
REMARK   62  A    between atoms: _180  and  _181
REMARK   63  A    between atoms: _180  and  _183
REMARK   64  A    between atoms: _183  and  _184
REMARK   65  A    between atoms: _189  and  _190
REMARK   66  A    between atoms: _192  and  _194
REMARK   67  A    between atoms: _194  and  _195
REMARK   68  A    between atoms: _194  and  _197
REMARK   69  A    between atoms: _197  and  _198
REMARK   70  A    between atoms: _201  and  _203
REMARK   71  A    between atoms: _203  and  _204
REMARK   72  A    between atoms: _203  and  _206
REMARK   73  A    between atoms: _206  and  _207
REMARK   74  A    between atoms: _210  and  _212
REMARK   75  A    between atoms: _212  and  _213
REMARK   76  A    between atoms: _212  and  _215
REMARK   77  A    between atoms: _215  and  _216
REMARK   78  A    between atoms: _216  and  _217
REMARK   79  A    between atoms: _217  and  _218
REMARK   80  A    between atoms: _227  and  _229
REMARK   81  A    between atoms: _229  and  _230
REMARK   82  A    between atoms: _232  and  _234
REMARK   83  A    between atoms: _234  and  _235
REMARK   84  A    between atoms: _234  and  _237
REMARK   85  A    between atoms: _237  and  _238
REMARK   86  A    between atoms: _241  and  _243
REMARK   87  A    between atoms: _243  and  _244
REMARK   88  A    between atoms: _243  and  _246
REMARK   89  A    between atoms: _246  and  _247
REMARK   90  A    between atoms: _250  and  _252
REMARK   91  A    between atoms: _252  and  _253
REMARK   92  A    between atoms: _252  and  _255
REMARK   93  A    between atoms: _255  and  _256
REMARK   94  A    between atoms: _262  and  _264
REMARK   95  A    between atoms: _264  and  _265
REMARK   96  A    between atoms: _264  and  _267
REMARK   97  A    between atoms: _267  and  _268
REMARK   98  A    between atoms: _268  and  _269
REMARK   99  A    between atoms: _269  and  _270
REMARK  100  A    between atoms: _279  and  _281
REMARK  101  A    between atoms: _281  and  _282
REMARK  102  A    between atoms: _281  and  _284
REMARK  103  A    between atoms: _284  and  _285
REMARK  104  A    between atoms: _295  and  _297
REMARK  105  A    between atoms: _297  and  _298
REMARK  106  A    between atoms: _297  and  _300
REMARK  107  A    between atoms: _300  and  _301
REMARK  108  A    between atoms: _306  and  _308
REMARK  109  A    between atoms: _308  and  _309
REMARK  110  A    between atoms: _308  and  _311
REMARK  111  A    between atoms: _311  and  _312
REMARK  112  A    between atoms: _316  and  ZN_415
REMARK  113  A    between atoms: _317  and  _319
REMARK  114  A    between atoms: _319  and  _320
REMARK  115  A    between atoms: _319  and  _322
REMARK  116  A    between atoms: _322  and  _323
REMARK  117  A    between atoms: _326  and  _328
REMARK  118  A    between atoms: _328  and  _329
REMARK  119  A    between atoms: _331  and  _333
REMARK  120  A    between atoms: _333  and  _334
REMARK  121  A    between atoms: _333  and  _336
REMARK  122  A    between atoms: _336  and  _337
REMARK  123  A    between atoms: _340  and  _342
REMARK  124  A    between atoms: _342  and  _343
REMARK  125  A    between atoms: _342  and  _345
REMARK  126  A    between atoms: _345  and  _346
REMARK  127  A    between atoms: _349  and  _351
REMARK  128  A    between atoms: _351  and  _352
REMARK  129  A    between atoms: _355  and  _357
REMARK  130  A    between atoms: _357  and  _358
REMARK  131  A    between atoms: _357  and  _360
REMARK  132  A    between atoms: _360  and  _361
REMARK  133  A    between atoms: _366  and  _367
REMARK  134  A    between atoms: _369  and  _371
REMARK  135  A    between atoms: _371  and  _372
REMARK  136  A    between atoms: _371  and  _374
REMARK  137  A    between atoms: _374  and  _375
REMARK  138  A    between atoms: _375  and  _376
REMARK  139  A    between atoms: _379  and  _381
REMARK  140  A    between atoms: _381  and  _382
REMARK  141  A    between atoms: _381  and  _384
REMARK  142  A    between atoms: _384  and  _385
REMARK  143  A    between atoms: _385  and  _386
REMARK  144  A    between atoms: _386  and  _387
REMARK  145  A    between atoms: _396  and  _398
REMARK  146  A    between atoms: _398  and  _399
REMARK  147  A    between atoms: _401  and  _403
REMARK  148  A    between atoms: _403  and  _404
REMARK  149  A    between atoms: _403  and  _406
REMARK  150  A    between atoms: _406  and  _407
REMARK  151  A    between atoms: _410  and  _412
REMARK  152  A    between atoms: _412  and  _413
REMARK                            x       y       z     vdW  Elec       q    Type
REMARK                         _______ _______ _______ _____ _____    ______ ____
ROOT
ATOM      1  O   HOH     1      24.722  61.415   8.929  0.00  0.00    +0.000 OA
ENDROOT
TORSDOF 0
REMARK  Name = ../refined-set-2016/3ddf/3ddf_pocket.pdb
REMARK  152 active torsions:
REMARK  status: ('A' for Active; 'I' for Inactive)
REMARK    1  A    between atoms: _1  and  _3
REMARK    2  A    between atoms: _14  and  _17
REMARK    3  A    between atoms: _17  and  _18
REMARK    4  A    between atoms: _25  and  _26
REMARK    5  A    between atoms: _33  and  _34
REMARK    6  A    between atoms: _39  and  _41
REMARK    7  A    between atoms: _41  and  _42
REMARK    8  A    between atoms: _44  and  _46
REMARK    9  A    between atoms: _46  and  _47
REMARK   10  A    between atoms: _46  and  _49
REMARK   11  A    between atoms: _49  and  _50
REMARK   12  A    between atoms: _60  and  _62
REMARK   13  A    between atoms: _62  and  _63
REMARK   14  A    between atoms: _62  and  _65
REMARK   15  A    between atoms: _65  and  _66
REMARK   16  A    between atoms: _69  and  _71
REMARK   17  A    between atoms: _71  and  _72
REMARK   18  A    between atoms: _71  and  _74
REMARK   19  A    between atoms: _74  and  _75
REMARK   20  A    between atoms: _80  and  _81
REMARK   21  A    between atoms: _83  and  _85
REMARK   22  A    between atoms: _85  and  _86
REMARK   23  A    between atoms: _85  and  _88
REMARK   24  A    between atoms: _88  and  _89
REMARK   25  A    between atoms: _89  and  _90
REMARK   26  A    between atoms: _93  and  _95
REMARK   27  A    between atoms: _95  and  _96
REMARK   28  A    between atoms: _95  and  _98
REMARK   29  A    between atoms: _98  and  _99
REMARK   30  A    between atoms: _99  and  _100
REMARK   31  A    between atoms: _102  and  _104
REMARK   32  A    between atoms: _104  and  _105
REMARK   33  A    between atoms: _104  and  _107
REMARK   34  A    between atoms: _107  and  _108
REMARK   35  A    between atoms: _111  and  _113
REMARK   36  A    between atoms: _113  and  _114
REMARK   37  A    between atoms: _113  and  _116
REMARK   38  A    between atoms: _116  and  _117
REMARK   39  A    between atoms: _117  and  _118
REMARK   40  A    between atoms: _118  and  ZN_415
REMARK   41  A    between atoms: _121  and  _122
REMARK   42  A    between atoms: _127  and  _129
REMARK   43  A    between atoms: _129  and  _130
REMARK   44  A    between atoms: _129  and  _132
REMARK   45  A    between atoms: _132  and  _133
REMARK   46  A    between atoms: _139  and  _141
REMARK   47  A    between atoms: _141  and  _142
REMARK   48  A    between atoms: _141  and  _144
REMARK   49  A    between atoms: _144  and  _145
REMARK   50  A    between atoms: _145  and  _146
REMARK   51  A    between atoms: _146  and  _147
REMARK   52  A    between atoms: _156  and  _158
REMARK   53  A    between atoms: _158  and  _159
REMARK   54  A    between atoms: _158  and  _161
REMARK   55  A    between atoms: _161  and  _162
REMARK   56  A    between atoms: _167  and  _168
REMARK   57  A    between atoms: _170  and  _172
REMARK   58  A    between atoms: _172  and  _173
REMARK   59  A    between atoms: _172  and  _175
REMARK   60  A    between atoms: _175  and  _176
REMARK   61  A    between atoms: _178  and  _180
REMARK   62  A    between atoms: _180  and  _181
REMARK   63  A    between atoms: _180  and  _183
REMARK   64  A    between atoms: _183  and  _184
REMARK   65  A    between atoms: _189  and  _190
REMARK   66  A    between atoms: _192  and  _194
REMARK   67  A    between atoms: _194  and  _195
REMARK   68  A    between atoms: _194  and  _197
REMARK   69  A    between atoms: _197  and  _198
REMARK   70  A    between atoms: _201  and  _203
REMARK   71  A    between atoms: _203  and  _204
REMARK   72  A    between atoms: _203  and  _206
REMARK   73  A    between atoms: _206  and  _207
REMARK   74  A    between atoms: _210  and  _212
REMARK   75  A    between atoms: _212  and  _213
REMARK   76  A    between atoms: _212  and  _215
REMARK   77  A    between atoms: _215  and  _216
REMARK   78  A    between atoms: _216  and  _217
REMARK   79  A    between atoms: _217  and  _218
REMARK   80  A    between atoms: _227  and  _229
REMARK   81  A    between atoms: _229  and  _230
REMARK   82  A    between atoms: _232  and  _234
REMARK   83  A    between atoms: _234  and  _235
REMARK   84  A    between atoms: _234  and  _237
REMARK   85  A    between atoms: _237  and  _238
REMARK   86  A    between atoms: _241  and  _243
REMARK   87  A    between atoms: _243  and  _244
REMARK   88  A    between atoms: _243  and  _246
REMARK   89  A    between atoms: _246  and  _247
REMARK   90  A    between atoms: _250  and  _252
REMARK   91  A    between atoms: _252  and  _253
REMARK   92  A    between atoms: _252  and  _255
REMARK   93  A    between atoms: _255  and  _256
REMARK   94  A    between atoms: _262  and  _264
REMARK   95  A    between atoms: _264  and  _265
REMARK   96  A    between atoms: _264  and  _267
REMARK   97  A    between atoms: _267  and  _268
REMARK   98  A    between atoms: _268  and  _269
REMARK   99  A    between atoms: _269  and  _270
REMARK  100  A    between atoms: _279  and  _281
REMARK  101  A    between atoms: _281  and  _282
REMARK  102  A    between atoms: _281  and  _284
REMARK  103  A    between atoms: _284  and  _285
REMARK  104  A    between atoms: _295  and  _297
REMARK  105  A    between atoms: _297  and  _298
REMARK  106  A    between atoms: _297  and  _300
REMARK  107  A    between atoms: _300  and  _301
REMARK  108  A    between atoms: _306  and  _308
REMARK  109  A    between atoms: _308  and  _309
REMARK  110  A    between atoms: _308  and  _311
REMARK  111  A    between atoms: _311  and  _312
REMARK  112  A    between atoms: _316  and  ZN_415
REMARK  113  A    between atoms: _317  and  _319
REMARK  114  A    between atoms: _319  and  _320
REMARK  115  A    between atoms: _319  and  _322
REMARK  116  A    between atoms: _322  and  _323
REMARK  117  A    between atoms: _326  and  _328
REMARK  118  A    between atoms: _328  and  _329
REMARK  119  A    between atoms: _331  and  _333
REMARK  120  A    between atoms: _333  and  _334
REMARK  121  A    between atoms: _333  and  _336
REMARK  122  A    between atoms: _336  and  _337
REMARK  123  A    between atoms: _340  and  _342
REMARK  124  A    between atoms: _342  and  _343
REMARK  125  A    between atoms: _342  and  _345
REMARK  126  A    between atoms: _345  and  _346
REMARK  127  A    between atoms: _349  and  _351
REMARK  128  A    between atoms: _351  and  _352
REMARK  129  A    between atoms: _355  and  _357
REMARK  130  A    between atoms: _357  and  _358
REMARK  131  A    between atoms: _357  and  _360
REMARK  132  A    between atoms: _360  and  _361
REMARK  133  A    between atoms: _366  and  _367
REMARK  134  A    between atoms: _369  and  _371
REMARK  135  A    between atoms: _371  and  _372
REMARK  136  A    between atoms: _371  and  _374
REMARK  137  A    between atoms: _374  and  _375
REMARK  138  A    between atoms: _375  and  _376
REMARK  139  A    between atoms: _379  and  _381
REMARK  140  A    between atoms: _381  and  _382
REMARK  141  A    between atoms: _381  and  _384
REMARK  142  A    between atoms: _384  and  _385
REMARK  143  A    between atoms: _385  and  _386
REMARK  144  A    between atoms: _386  and  _387
REMARK  145  A    between atoms: _396  and  _398
REMARK  146  A    between atoms: _398  and  _399
REMARK  147  A    between atoms: _401  and  _403
REMARK  148  A    between atoms: _403  and  _404
REMARK  149  A    between atoms: _403  and  _406
REMARK  150  A    between atoms: _406  and  _407
REMARK  151  A    between atoms: _410  and  _412
REMARK  152  A    between atoms: _412  and  _413
REMARK                            x       y       z     vdW  Elec       q    Type
REMARK                         _______ _______ _______ _____ _____    ______ ____
ROOT
ATOM      1  O   HOH     1      20.793  65.546   7.722  0.00  0.00    +0.000 OA
ENDROOT
TORSDOF 0
REMARK  Name = ../refined-set-2016/3ddf/3ddf_pocket.pdb
REMARK  152 active torsions:
REMARK  status: ('A' for Active; 'I' for Inactive)
REMARK    1  A    between atoms: _1  and  _3
REMARK    2  A    between atoms: _14  and  _17
REMARK    3  A    between atoms: _17  and  _18
REMARK    4  A    between atoms: _25  and  _26
REMARK    5  A    between atoms: _33  and  _34
REMARK    6  A    between atoms: _39  and  _41
REMARK    7  A    between atoms: _41  and  _42
REMARK    8  A    between atoms: _44  and  _46
REMARK    9  A    between atoms: _46  and  _47
REMARK   10  A    between atoms: _46  and  _49
REMARK   11  A    between atoms: _49  and  _50
REMARK   12  A    between atoms: _60  and  _62
REMARK   13  A    between atoms: _62  and  _63
REMARK   14  A    between atoms: _62  and  _65
REMARK   15  A    between atoms: _65  and  _66
REMARK   16  A    between atoms: _69  and  _71
REMARK   17  A    between atoms: _71  and  _72
REMARK   18  A    between atoms: _71  and  _74
REMARK   19  A    between atoms: _74  and  _75
REMARK   20  A    between atoms: _80  and  _81
REMARK   21  A    between atoms: _83  and  _85
REMARK   22  A    between atoms: _85  and  _86
REMARK   23  A    between atoms: _85  and  _88
REMARK   24  A    between atoms: _88  and  _89
REMARK   25  A    between atoms: _89  and  _90
REMARK   26  A    between atoms: _93  and  _95
REMARK   27  A    between atoms: _95  and  _96
REMARK   28  A    between atoms: _95  and  _98
REMARK   29  A    between atoms: _98  and  _99
REMARK   30  A    between atoms: _99  and  _100
REMARK   31  A    between atoms: _102  and  _104
REMARK   32  A    between atoms: _104  and  _105
REMARK   33  A    between atoms: _104  and  _107
REMARK   34  A    between atoms: _107  and  _108
REMARK   35  A    between atoms: _111  and  _113
REMARK   36  A    between atoms: _113  and  _114
REMARK   37  A    between atoms: _113  and  _116
REMARK   38  A    between atoms: _116  and  _117
REMARK   39  A    between atoms: _117  and  _118
REMARK   40  A    between atoms: _118  and  ZN_415
REMARK   41  A    between atoms: _121  and  _122
REMARK   42  A    between atoms: _127  and  _129
REMARK   43  A    between atoms: _129  and  _130
REMARK   44  A    between atoms: _129  and  _132
REMARK   45  A    between atoms: _132  and  _133
REMARK   46  A    between atoms: _139  and  _141
REMARK   47  A    between atoms: _141  and  _142
REMARK   48  A    between atoms: _141  and  _144
REMARK   49  A    between atoms: _144  and  _145
REMARK   50  A    between atoms: _145  and  _146
REMARK   51  A    between atoms: _146  and  _147
REMARK   52  A    between atoms: _156  and  _158
REMARK   53  A    between atoms: _158  and  _159
REMARK   54  A    between atoms: _158  and  _161
REMARK   55  A    between atoms: _161  and  _162
REMARK   56  A    between atoms: _167  and  _168
REMARK   57  A    between atoms: _170  and  _172
REMARK   58  A    between atoms: _172  and  _173
REMARK   59  A    between atoms: _172  and  _175
REMARK   60  A    between atoms: _175  and  _176
REMARK   61  A    between atoms: _178  and  _180
REMARK   62  A    between atoms: _180  and  _181
REMARK   63  A    between atoms: _180  and  _183
REMARK   64  A    between atoms: _183  and  _184
REMARK   65  A    between atoms: _189  and  _190
REMARK   66  A    between atoms: _192  and  _194
REMARK   67  A    between atoms: _194  and  _195
REMARK   68  A    between atoms: _194  and  _197
REMARK   69  A    between atoms: _197  and  _198
REMARK   70  A    between atoms: _201  and  _203
REMARK   71  A    between atoms: _203  and  _204
REMARK   72  A    between atoms: _203  and  _206
REMARK   73  A    between atoms: _206  and  _207
REMARK   74  A    between atoms: _210  and  _212
REMARK   75  A    between atoms: _212  and  _213
REMARK   76  A    between atoms: _212  and  _215
REMARK   77  A    between atoms: _215  and  _216
REMARK   78  A    between atoms: _216  and  _217
REMARK   79  A    between atoms: _217  and  _218
REMARK   80  A    between atoms: _227  and  _229
REMARK   81  A    between atoms: _229  and  _230
REMARK   82  A    between atoms: _232  and  _234
REMARK   83  A    between atoms: _234  and  _235
REMARK   84  A    between atoms: _234  and  _237
REMARK   85  A    between atoms: _237  and  _238
REMARK   86  A    between atoms: _241  and  _243
REMARK   87  A    between atoms: _243  and  _244
REMARK   88  A    between atoms: _243  and  _246
REMARK   89  A    between atoms: _246  and  _247
REMARK   90  A    between atoms: _250  and  _252
REMARK   91  A    between atoms: _252  and  _253
REMARK   92  A    between atoms: _252  and  _255
REMARK   93  A    between atoms: _255  and  _256
REMARK   94  A    between atoms: _262  and  _264
REMARK   95  A    between atoms: _264  and  _265
REMARK   96  A    between atoms: _264  and  _267
REMARK   97  A    between atoms: _267  and  _268
REMARK   98  A    between atoms: _268  and  _269
REMARK   99  A    between atoms: _269  and  _270
REMARK  100  A    between atoms: _279  and  _281
REMARK  101  A    between atoms: _281  and  _282
REMARK  102  A    between atoms: _281  and  _284
REMARK  103  A    between atoms: _284  and  _285
REMARK  104  A    between atoms: _295  and  _297
REMARK  105  A    between atoms: _297  and  _298
REMARK  106  A    between atoms: _297  and  _300
REMARK  107  A    between atoms: _300  and  _301
REMARK  108  A    between atoms: _306  and  _308
REMARK  109  A    between atoms: _308  and  _309
REMARK  110  A    between atoms: _308  and  _311
REMARK  111  A    between atoms: _311  and  _312
REMARK  112  A    between atoms: _316  and  ZN_415
REMARK  113  A    between atoms: _317  and  _319
REMARK  114  A    between atoms: _319  and  _320
REMARK  115  A    between atoms: _319  and  _322
REMARK  116  A    between atoms: _322  and  _323
REMARK  117  A    between atoms: _326  and  _328
REMARK  118  A    between atoms: _328  and  _329
REMARK  119  A    between atoms: _331  and  _333
REMARK  120  A    between atoms: _333  and  _334
REMARK  121  A    between atoms: _333  and  _336
REMARK  122  A    between atoms: _336  and  _337
REMARK  123  A    between atoms: _340  and  _342
REMARK  124  A    between atoms: _342  and  _343
REMARK  125  A    between atoms: _342  and  _345
REMARK  126  A    between atoms: _345  and  _346
REMARK  127  A    between atoms: _349  and  _351
REMARK  128  A    between atoms: _351  and  _352
REMARK  129  A    between atoms: _355  and  _357
REMARK  130  A    between atoms: _357  and  _358
REMARK  131  A    between atoms: _357  and  _360
REMARK  132  A    between atoms: _360  and  _361
REMARK  133  A    between atoms: _366  and  _367
REMARK  134  A    between atoms: _369  and  _371
REMARK  135  A    between atoms: _371  and  _372
REMARK  136  A    between atoms: _371  and  _374
REMARK  137  A    between atoms: _374  and  _375
REMARK  138  A    between atoms: _375  and  _376
REMARK  139  A    between atoms: _379  and  _381
REMARK  140  A    between atoms: _381  and  _382
REMARK  141  A    between atoms: _381  and  _384
REMARK  142  A    between atoms: _384  and  _385
REMARK  143  A    between atoms: _385  and  _386
REMARK  144  A    between atoms: _386  and  _387
REMARK  145  A    between atoms: _396  and  _398
REMARK  146  A    between atoms: _398  and  _399
REMARK  147  A    between atoms: _401  and  _403
REMARK  148  A    between atoms: _403  and  _404
REMARK  149  A    between atoms: _403  and  _406
REMARK  150  A    between atoms: _406  and  _407
REMARK  151  A    between atoms: _410  and  _412
REMARK  152  A    between atoms: _412  and  _413
REMARK                            x       y       z     vdW  Elec       q    Type
REMARK                         _______ _______ _______ _____ _____    ______ ____
ROOT
ATOM      1  O   HOH     1      20.579  68.196   8.433  0.00  0.00    +0.000 OA
ENDROOT
TORSDOF 0
REMARK  Name = ../refined-set-2016/3ddf/3ddf_pocket.pdb
REMARK  152 active torsions:
REMARK  status: ('A' for Active; 'I' for Inactive)
REMARK    1  A    between atoms: _1  and  _3
REMARK    2  A    between atoms: _14  and  _17
REMARK    3  A    between atoms: _17  and  _18
REMARK    4  A    between atoms: _25  and  _26
REMARK    5  A    between atoms: _33  and  _34
REMARK    6  A    between atoms: _39  and  _41
REMARK    7  A    between atoms: _41  and  _42
REMARK    8  A    between atoms: _44  and  _46
REMARK    9  A    between atoms: _46  and  _47
REMARK   10  A    between atoms: _46  and  _49
REMARK   11  A    between atoms: _49  and  _50
REMARK   12  A    between atoms: _60  and  _62
REMARK   13  A    between atoms: _62  and  _63
REMARK   14  A    between atoms: _62  and  _65
REMARK   15  A    between atoms: _65  and  _66
REMARK   16  A    between atoms: _69  and  _71
REMARK   17  A    between atoms: _71  and  _72
REMARK   18  A    between atoms: _71  and  _74
REMARK   19  A    between atoms: _74  and  _75
REMARK   20  A    between atoms: _80  and  _81
REMARK   21  A    between atoms: _83  and  _85
REMARK   22  A    between atoms: _85  and  _86
REMARK   23  A    between atoms: _85  and  _88
REMARK   24  A    between atoms: _88  and  _89
REMARK   25  A    between atoms: _89  and  _90
REMARK   26  A    between atoms: _93  and  _95
REMARK   27  A    between atoms: _95  and  _96
REMARK   28  A    between atoms: _95  and  _98
REMARK   29  A    between atoms: _98  and  _99
REMARK   30  A    between atoms: _99  and  _100
REMARK   31  A    between atoms: _102  and  _104
REMARK   32  A    between atoms: _104  and  _105
REMARK   33  A    between atoms: _104  and  _107
REMARK   34  A    between atoms: _107  and  _108
REMARK   35  A    between atoms: _111  and  _113
REMARK   36  A    between atoms: _113  and  _114
REMARK   37  A    between atoms: _113  and  _116
REMARK   38  A    between atoms: _116  and  _117
REMARK   39  A    between atoms: _117  and  _118
REMARK   40  A    between atoms: _118  and  ZN_415
REMARK   41  A    between atoms: _121  and  _122
REMARK   42  A    between atoms: _127  and  _129
REMARK   43  A    between atoms: _129  and  _130
REMARK   44  A    between atoms: _129  and  _132
REMARK   45  A    between atoms: _132  and  _133
REMARK   46  A    between atoms: _139  and  _141
REMARK   47  A    between atoms: _141  and  _142
REMARK   48  A    between atoms: _141  and  _144
REMARK   49  A    between atoms: _144  and  _145
REMARK   50  A    between atoms: _145  and  _146
REMARK   51  A    between atoms: _146  and  _147
REMARK   52  A    between atoms: _156  and  _158
REMARK   53  A    between atoms: _158  and  _159
REMARK   54  A    between atoms: _158  and  _161
REMARK   55  A    between atoms: _161  and  _162
REMARK   56  A    between atoms: _167  and  _168
REMARK   57  A    between atoms: _170  and  _172
REMARK   58  A    between atoms: _172  and  _173
REMARK   59  A    between atoms: _172  and  _175
REMARK   60  A    between atoms: _175  and  _176
REMARK   61  A    between atoms: _178  and  _180
REMARK   62  A    between atoms: _180  and  _181
REMARK   63  A    between atoms: _180  and  _183
REMARK   64  A    between atoms: _183  and  _184
REMARK   65  A    between atoms: _189  and  _190
REMARK   66  A    between atoms: _192  and  _194
REMARK   67  A    between atoms: _194  and  _195
REMARK   68  A    between atoms: _194  and  _197
REMARK   69  A    between atoms: _197  and  _198
REMARK   70  A    between atoms: _201  and  _203
REMARK   71  A    between atoms: _203  and  _204
REMARK   72  A    between atoms: _203  and  _206
REMARK   73  A    between atoms: _206  and  _207
REMARK   74  A    between atoms: _210  and  _212
REMARK   75  A    between atoms: _212  and  _213
REMARK   76  A    between atoms: _212  and  _215
REMARK   77  A    between atoms: _215  and  _216
REMARK   78  A    between atoms: _216  and  _217
REMARK   79  A    between atoms: _217  and  _218
REMARK   80  A    between atoms: _227  and  _229
REMARK   81  A    between atoms: _229  and  _230
REMARK   82  A    between atoms: _232  and  _234
REMARK   83  A    between atoms: _234  and  _235
REMARK   84  A    between atoms: _234  and  _237
REMARK   85  A    between atoms: _237  and  _238
REMARK   86  A    between atoms: _241  and  _243
REMARK   87  A    between atoms: _243  and  _244
REMARK   88  A    between atoms: _243  and  _246
REMARK   89  A    between atoms: _246  and  _247
REMARK   90  A    between atoms: _250  and  _252
REMARK   91  A    between atoms: _252  and  _253
REMARK   92  A    between atoms: _252  and  _255
REMARK   93  A    between atoms: _255  and  _256
REMARK   94  A    between atoms: _262  and  _264
REMARK   95  A    between atoms: _264  and  _265
REMARK   96  A    between atoms: _264  and  _267
REMARK   97  A    between atoms: _267  and  _268
REMARK   98  A    between atoms: _268  and  _269
REMARK   99  A    between atoms: _269  and  _270
REMARK  100  A    between atoms: _279  and  _281
REMARK  101  A    between atoms: _281  and  _282
REMARK  102  A    between atoms: _281  and  _284
REMARK  103  A    between atoms: _284  and  _285
REMARK  104  A    between atoms: _295  and  _297
REMARK  105  A    between atoms: _297  and  _298
REMARK  106  A    between atoms: _297  and  _300
REMARK  107  A    between atoms: _300  and  _301
REMARK  108  A    between atoms: _306  and  _308
REMARK  109  A    between atoms: _308  and  _309
REMARK  110  A    between atoms: _308  and  _311
REMARK  111  A    between atoms: _311  and  _312
REMARK  112  A    between atoms: _316  and  ZN_415
REMARK  113  A    between atoms: _317  and  _319
REMARK  114  A    between atoms: _319  and  _320
REMARK  115  A    between atoms: _319  and  _322
REMARK  116  A    between atoms: _322  and  _323
REMARK  117  A    between atoms: _326  and  _328
REMARK  118  A    between atoms: _328  and  _329
REMARK  119  A    between atoms: _331  and  _333
REMARK  120  A    between atoms: _333  and  _334
REMARK  121  A    between atoms: _333  and  _336
REMARK  122  A    between atoms: _336  and  _337
REMARK  123  A    between atoms: _340  and  _342
REMARK  124  A    between atoms: _342  and  _343
REMARK  125  A    between atoms: _342  and  _345
REMARK  126  A    between atoms: _345  and  _346
REMARK  127  A    between atoms: _349  and  _351
REMARK  128  A    between atoms: _351  and  _352
REMARK  129  A    between atoms: _355  and  _357
REMARK  130  A    between atoms: _357  and  _358
REMARK  131  A    between atoms: _357  and  _360
REMARK  132  A    between atoms: _360  and  _361
REMARK  133  A    between atoms: _366  and  _367
REMARK  134  A    between atoms: _369  and  _371
REMARK  135  A    between atoms: _371  and  _372
REMARK  136  A    between atoms: _371  and  _374
REMARK  137  A    between atoms: _374  and  _375
REMARK  138  A    between atoms: _375  and  _376
REMARK  139  A    between atoms: _379  and  _381
REMARK  140  A    between atoms: _381  and  _382
REMARK  141  A    between atoms: _381  and  _384
REMARK  142  A    between atoms: _384  and  _385
REMARK  143  A    between atoms: _385  and  _386
REMARK  144  A    between atoms: _386  and  _387
REMARK  145  A    between atoms: _396  and  _398
REMARK  146  A    between atoms: _398  and  _399
REMARK  147  A    between atoms: _401  and  _403
REMARK  148  A    between atoms: _403  and  _404
REMARK  149  A    between atoms: _403  and  _406
REMARK  150  A    between atoms: _406  and  _407
REMARK  151  A    between atoms: _410  and  _412
REMARK  152  A    between atoms: _412  and  _413
REMARK                            x       y       z     vdW  Elec       q    Type
REMARK                         _______ _______ _______ _____ _____    ______ ____
ROOT
ATOM      1  O   HOH     1      21.313  65.369  11.986  0.00  0.00    +0.000 OA
ENDROOT
TORSDOF 0
REMARK  Name = ../refined-set-2016/3ddf/3ddf_pocket.pdb
REMARK  152 active torsions:
REMARK  status: ('A' for Active; 'I' for Inactive)
REMARK    1  A    between atoms: _1  and  _3
REMARK    2  A    between atoms: _14  and  _17
REMARK    3  A    between atoms: _17  and  _18
REMARK    4  A    between atoms: _25  and  _26
REMARK    5  A    between atoms: _33  and  _34
REMARK    6  A    between atoms: _39  and  _41
REMARK    7  A    between atoms: _41  and  _42
REMARK    8  A    between atoms: _44  and  _46
REMARK    9  A    between atoms: _46  and  _47
REMARK   10  A    between atoms: _46  and  _49
REMARK   11  A    between atoms: _49  and  _50
REMARK   12  A    between atoms: _60  and  _62
REMARK   13  A    between atoms: _62  and  _63
REMARK   14  A    between atoms: _62  and  _65
REMARK   15  A    between atoms: _65  and  _66
REMARK   16  A    between atoms: _69  and  _71
REMARK   17  A    between atoms: _71  and  _72
REMARK   18  A    between atoms: _71  and  _74
REMARK   19  A    between atoms: _74  and  _75
REMARK   20  A    between atoms: _80  and  _81
REMARK   21  A    between atoms: _83  and  _85
REMARK   22  A    between atoms: _85  and  _86
REMARK   23  A    between atoms: _85  and  _88
REMARK   24  A    between atoms: _88  and  _89
REMARK   25  A    between atoms: _89  and  _90
REMARK   26  A    between atoms: _93  and  _95
REMARK   27  A    between atoms: _95  and  _96
REMARK   28  A    between atoms: _95  and  _98
REMARK   29  A    between atoms: _98  and  _99
REMARK   30  A    between atoms: _99  and  _100
REMARK   31  A    between atoms: _102  and  _104
REMARK   32  A    between atoms: _104  and  _105
REMARK   33  A    between atoms: _104  and  _107
REMARK   34  A    between atoms: _107  and  _108
REMARK   35  A    between atoms: _111  and  _113
REMARK   36  A    between atoms: _113  and  _114
REMARK   37  A    between atoms: _113  and  _116
REMARK   38  A    between atoms: _116  and  _117
REMARK   39  A    between atoms: _117  and  _118
REMARK   40  A    between atoms: _118  and  ZN_415
REMARK   41  A    between atoms: _121  and  _122
REMARK   42  A    between atoms: _127  and  _129
REMARK   43  A    between atoms: _129  and  _130
REMARK   44  A    between atoms: _129  and  _132
REMARK   45  A    between atoms: _132  and  _133
REMARK   46  A    between atoms: _139  and  _141
REMARK   47  A    between atoms: _141  and  _142
REMARK   48  A    between atoms: _141  and  _144
REMARK   49  A    between atoms: _144  and  _145
REMARK   50  A    between atoms: _145  and  _146
REMARK   51  A    between atoms: _146  and  _147
REMARK   52  A    between atoms: _156  and  _158
REMARK   53  A    between atoms: _158  and  _159
REMARK   54  A    between atoms: _158  and  _161
REMARK   55  A    between atoms: _161  and  _162
REMARK   56  A    between atoms: _167  and  _168
REMARK   57  A    between atoms: _170  and  _172
REMARK   58  A    between atoms: _172  and  _173
REMARK   59  A    between atoms: _172  and  _175
REMARK   60  A    between atoms: _175  and  _176
REMARK   61  A    between atoms: _178  and  _180
REMARK   62  A    between atoms: _180  and  _181
REMARK   63  A    between atoms: _180  and  _183
REMARK   64  A    between atoms: _183  and  _184
REMARK   65  A    between atoms: _189  and  _190
REMARK   66  A    between atoms: _192  and  _194
REMARK   67  A    between atoms: _194  and  _195
REMARK   68  A    between atoms: _194  and  _197
REMARK   69  A    between atoms: _197  and  _198
REMARK   70  A    between atoms: _201  and  _203
REMARK   71  A    between atoms: _203  and  _204
REMARK   72  A    between atoms: _203  and  _206
REMARK   73  A    between atoms: _206  and  _207
REMARK   74  A    between atoms: _210  and  _212
REMARK   75  A    between atoms: _212  and  _213
REMARK   76  A    between atoms: _212  and  _215
REMARK   77  A    between atoms: _215  and  _216
REMARK   78  A    between atoms: _216  and  _217
REMARK   79  A    between atoms: _217  and  _218
REMARK   80  A    between atoms: _227  and  _229
REMARK   81  A    between atoms: _229  and  _230
REMARK   82  A    between atoms: _232  and  _234
REMARK   83  A    between atoms: _234  and  _235
REMARK   84  A    between atoms: _234  and  _237
REMARK   85  A    between atoms: _237  and  _238
REMARK   86  A    between atoms: _241  and  _243
REMARK   87  A    between atoms: _243  and  _244
REMARK   88  A    between atoms: _243  and  _246
REMARK   89  A    between atoms: _246  and  _247
REMARK   90  A    between atoms: _250  and  _252
REMARK   91  A    between atoms: _252  and  _253
REMARK   92  A    between atoms: _252  and  _255
REMARK   93  A    between atoms: _255  and  _256
REMARK   94  A    between atoms: _262  and  _264
REMARK   95  A    between atoms: _264  and  _265
REMARK   96  A    between atoms: _264  and  _267
REMARK   97  A    between atoms: _267  and  _268
REMARK   98  A    between atoms: _268  and  _269
REMARK   99  A    between atoms: _269  and  _270
REMARK  100  A    between atoms: _279  and  _281
REMARK  101  A    between atoms: _281  and  _282
REMARK  102  A    between atoms: _281  and  _284
REMARK  103  A    between atoms: _284  and  _285
REMARK  104  A    between atoms: _295  and  _297
REMARK  105  A    between atoms: _297  and  _298
REMARK  106  A    between atoms: _297  and  _300
REMARK  107  A    between atoms: _300  and  _301
REMARK  108  A    between atoms: _306  and  _308
REMARK  109  A    between atoms: _308  and  _309
REMARK  110  A    between atoms: _308  and  _311
REMARK  111  A    between atoms: _311  and  _312
REMARK  112  A    between atoms: _316  and  ZN_415
REMARK  113  A    between atoms: _317  and  _319
REMARK  114  A    between atoms: _319  and  _320
REMARK  115  A    between atoms: _319  and  _322
REMARK  116  A    between atoms: _322  and  _323
REMARK  117  A    between atoms: _326  and  _328
REMARK  118  A    between atoms: _328  and  _329
REMARK  119  A    between atoms: _331  and  _333
REMARK  120  A    between atoms: _333  and  _334
REMARK  121  A    between atoms: _333  and  _336
REMARK  122  A    between atoms: _336  and  _337
REMARK  123  A    between atoms: _340  and  _342
REMARK  124  A    between atoms: _342  and  _343
REMARK  125  A    between atoms: _342  and  _345
REMARK  126  A    between atoms: _345  and  _346
REMARK  127  A    between atoms: _349  and  _351
REMARK  128  A    between atoms: _351  and  _352
REMARK  129  A    between atoms: _355  and  _357
REMARK  130  A    between atoms: _357  and  _358
REMARK  131  A    between atoms: _357  and  _360
REMARK  132  A    between atoms: _360  and  _361
REMARK  133  A    between atoms: _366  and  _367
REMARK  134  A    between atoms: _369  and  _371
REMARK  135  A    between atoms: _371  and  _372
REMARK  136  A    between atoms: _371  and  _374
REMARK  137  A    between atoms: _374  and  _375
REMARK  138  A    between atoms: _375  and  _376
REMARK  139  A    between atoms: _379  and  _381
REMARK  140  A    between atoms: _381  and  _382
REMARK  141  A    between atoms: _381  and  _384
REMARK  142  A    between atoms: _384  and  _385
REMARK  143  A    between atoms: _385  and  _386
REMARK  144  A    between atoms: _386  and  _387
REMARK  145  A    between atoms: _396  and  _398
REMARK  146  A    between atoms: _398  and  _399
REMARK  147  A    between atoms: _401  and  _403
REMARK  148  A    between atoms: _403  and  _404
REMARK  149  A    between atoms: _403  and  _406
REMARK  150  A    between atoms: _406  and  _407
REMARK  151  A    between atoms: _410  and  _412
REMARK  152  A    between atoms: _412  and  _413
REMARK                            x       y       z     vdW  Elec       q    Type
REMARK                         _______ _______ _______ _____ _____    ______ ____
ROOT
ATOM      1  O   HOH     1      21.135  63.766  14.640  0.00  0.00    +0.000 OA
ENDROOT
TORSDOF 0
REMARK  Name = ../refined-set-2016/3ddf/3ddf_pocket.pdb
REMARK  152 active torsions:
REMARK  status: ('A' for Active; 'I' for Inactive)
REMARK    1  A    between atoms: _1  and  _3
REMARK    2  A    between atoms: _14  and  _17
REMARK    3  A    between atoms: _17  and  _18
REMARK    4  A    between atoms: _25  and  _26
REMARK    5  A    between atoms: _33  and  _34
REMARK    6  A    between atoms: _39  and  _41
REMARK    7  A    between atoms: _41  and  _42
REMARK    8  A    between atoms: _44  and  _46
REMARK    9  A    between atoms: _46  and  _47
REMARK   10  A    between atoms: _46  and  _49
REMARK   11  A    between atoms: _49  and  _50
REMARK   12  A    between atoms: _60  and  _62
REMARK   13  A    between atoms: _62  and  _63
REMARK   14  A    between atoms: _62  and  _65
REMARK   15  A    between atoms: _65  and  _66
REMARK   16  A    between atoms: _69  and  _71
REMARK   17  A    between atoms: _71  and  _72
REMARK   18  A    between atoms: _71  and  _74
REMARK   19  A    between atoms: _74  and  _75
REMARK   20  A    between atoms: _80  and  _81
REMARK   21  A    between atoms: _83  and  _85
REMARK   22  A    between atoms: _85  and  _86
REMARK   23  A    between atoms: _85  and  _88
REMARK   24  A    between atoms: _88  and  _89
REMARK   25  A    between atoms: _89  and  _90
REMARK   26  A    between atoms: _93  and  _95
REMARK   27  A    between atoms: _95  and  _96
REMARK   28  A    between atoms: _95  and  _98
REMARK   29  A    between atoms: _98  and  _99
REMARK   30  A    between atoms: _99  and  _100
REMARK   31  A    between atoms: _102  and  _104
REMARK   32  A    between atoms: _104  and  _105
REMARK   33  A    between atoms: _104  and  _107
REMARK   34  A    between atoms: _107  and  _108
REMARK   35  A    between atoms: _111  and  _113
REMARK   36  A    between atoms: _113  and  _114
REMARK   37  A    between atoms: _113  and  _116
REMARK   38  A    between atoms: _116  and  _117
REMARK   39  A    between atoms: _117  and  _118
REMARK   40  A    between atoms: _118  and  ZN_415
REMARK   41  A    between atoms: _121  and  _122
REMARK   42  A    between atoms: _127  and  _129
REMARK   43  A    between atoms: _129  and  _130
REMARK   44  A    between atoms: _129  and  _132
REMARK   45  A    between atoms: _132  and  _133
REMARK   46  A    between atoms: _139  and  _141
REMARK   47  A    between atoms: _141  and  _142
REMARK   48  A    between atoms: _141  and  _144
REMARK   49  A    between atoms: _144  and  _145
REMARK   50  A    between atoms: _145  and  _146
REMARK   51  A    between atoms: _146  and  _147
REMARK   52  A    between atoms: _156  and  _158
REMARK   53  A    between atoms: _158  and  _159
REMARK   54  A    between atoms: _158  and  _161
REMARK   55  A    between atoms: _161  and  _162
REMARK   56  A    between atoms: _167  and  _168
REMARK   57  A    between atoms: _170  and  _172
REMARK   58  A    between atoms: _172  and  _173
REMARK   59  A    between atoms: _172  and  _175
REMARK   60  A    between atoms: _175  and  _176
REMARK   61  A    between atoms: _178  and  _180
REMARK   62  A    between atoms: _180  and  _181
REMARK   63  A    between atoms: _180  and  _183
REMARK   64  A    between atoms: _183  and  _184
REMARK   65  A    between atoms: _189  and  _190
REMARK   66  A    between atoms: _192  and  _194
REMARK   67  A    between atoms: _194  and  _195
REMARK   68  A    between atoms: _194  and  _197
REMARK   69  A    between atoms: _197  and  _198
REMARK   70  A    between atoms: _201  and  _203
REMARK   71  A    between atoms: _203  and  _204
REMARK   72  A    between atoms: _203  and  _206
REMARK   73  A    between atoms: _206  and  _207
REMARK   74  A    between atoms: _210  and  _212
REMARK   75  A    between atoms: _212  and  _213
REMARK   76  A    between atoms: _212  and  _215
REMARK   77  A    between atoms: _215  and  _216
REMARK   78  A    between atoms: _216  and  _217
REMARK   79  A    between atoms: _217  and  _218
REMARK   80  A    between atoms: _227  and  _229
REMARK   81  A    between atoms: _229  and  _230
REMARK   82  A    between atoms: _232  and  _234
REMARK   83  A    between atoms: _234  and  _235
REMARK   84  A    between atoms: _234  and  _237
REMARK   85  A    between atoms: _237  and  _238
REMARK   86  A    between atoms: _241  and  _243
REMARK   87  A    between atoms: _243  and  _244
REMARK   88  A    between atoms: _243  and  _246
REMARK   89  A    between atoms: _246  and  _247
REMARK   90  A    between atoms: _250  and  _252
REMARK   91  A    between atoms: _252  and  _253
REMARK   92  A    between atoms: _252  and  _255
REMARK   93  A    between atoms: _255  and  _256
REMARK   94  A    between atoms: _262  and  _264
REMARK   95  A    between atoms: _264  and  _265
REMARK   96  A    between atoms: _264  and  _267
REMARK   97  A    between atoms: _267  and  _268
REMARK   98  A    between atoms: _268  and  _269
REMARK   99  A    between atoms: _269  and  _270
REMARK  100  A    between atoms: _279  and  _281
REMARK  101  A    between atoms: _281  and  _282
REMARK  102  A    between atoms: _281  and  _284
REMARK  103  A    between atoms: _284  and  _285
REMARK  104  A    between atoms: _295  and  _297
REMARK  105  A    between atoms: _297  and  _298
REMARK  106  A    between atoms: _297  and  _300
REMARK  107  A    between atoms: _300  and  _301
REMARK  108  A    between atoms: _306  and  _308
REMARK  109  A    between atoms: _308  and  _309
REMARK  110  A    between atoms: _308  and  _311
REMARK  111  A    between atoms: _311  and  _312
REMARK  112  A    between atoms: _316  and  ZN_415
REMARK  113  A    between atoms: _317  and  _319
REMARK  114  A    between atoms: _319  and  _320
REMARK  115  A    between atoms: _319  and  _322
REMARK  116  A    between atoms: _322  and  _323
REMARK  117  A    between atoms: _326  and  _328
REMARK  118  A    between atoms: _328  and  _329
REMARK  119  A    between atoms: _331  and  _333
REMARK  120  A    between atoms: _333  and  _334
REMARK  121  A    between atoms: _333  and  _336
REMARK  122  A    between atoms: _336  and  _337
REMARK  123  A    between atoms: _340  and  _342
REMARK  124  A    between atoms: _342  and  _343
REMARK  125  A    between atoms: _342  and  _345
REMARK  126  A    between atoms: _345  and  _346
REMARK  127  A    between atoms: _349  and  _351
REMARK  128  A    between atoms: _351  and  _352
REMARK  129  A    between atoms: _355  and  _357
REMARK  130  A    between atoms: _357  and  _358
REMARK  131  A    between atoms: _357  and  _360
REMARK  132  A    between atoms: _360  and  _361
REMARK  133  A    between atoms: _366  and  _367
REMARK  134  A    between atoms: _369  and  _371
REMARK  135  A    between atoms: _371  and  _372
REMARK  136  A    between atoms: _371  and  _374
REMARK  137  A    between atoms: _374  and  _375
REMARK  138  A    between atoms: _375  and  _376
REMARK  139  A    between atoms: _379  and  _381
REMARK  140  A    between atoms: _381  and  _382
REMARK  141  A    between atoms: _381  and  _384
REMARK  142  A    between atoms: _384  and  _385
REMARK  143  A    between atoms: _385  and  _386
REMARK  144  A    between atoms: _386  and  _387
REMARK  145  A    between atoms: _396  and  _398
REMARK  146  A    between atoms: _398  and  _399
REMARK  147  A    between atoms: _401  and  _403
REMARK  148  A    between atoms: _403  and  _404
REMARK  149  A    between atoms: _403  and  _406
REMARK  150  A    between atoms: _406  and  _407
REMARK  151  A    between atoms: _410  and  _412
REMARK  152  A    between atoms: _412  and  _413
REMARK                            x       y       z     vdW  Elec       q    Type
REMARK                         _______ _______ _______ _____ _____    ______ ____
ROOT
ATOM      1  O   HOH     1      23.825  68.128  10.005  0.00  0.00    +0.000 OA
ENDROOT
TORSDOF 0
REMARK  Name = ../refined-set-2016/3ddf/3ddf_pocket.pdb
REMARK  152 active torsions:
REMARK  status: ('A' for Active; 'I' for Inactive)
REMARK    1  A    between atoms: _1  and  _3
REMARK    2  A    between atoms: _14  and  _17
REMARK    3  A    between atoms: _17  and  _18
REMARK    4  A    between atoms: _25  and  _26
REMARK    5  A    between atoms: _33  and  _34
REMARK    6  A    between atoms: _39  and  _41
REMARK    7  A    between atoms: _41  and  _42
REMARK    8  A    between atoms: _44  and  _46
REMARK    9  A    between atoms: _46  and  _47
REMARK   10  A    between atoms: _46  and  _49
REMARK   11  A    between atoms: _49  and  _50
REMARK   12  A    between atoms: _60  and  _62
REMARK   13  A    between atoms: _62  and  _63
REMARK   14  A    between atoms: _62  and  _65
REMARK   15  A    between atoms: _65  and  _66
REMARK   16  A    between atoms: _69  and  _71
REMARK   17  A    between atoms: _71  and  _72
REMARK   18  A    between atoms: _71  and  _74
REMARK   19  A    between atoms: _74  and  _75
REMARK   20  A    between atoms: _80  and  _81
REMARK   21  A    between atoms: _83  and  _85
REMARK   22  A    between atoms: _85  and  _86
REMARK   23  A    between atoms: _85  and  _88
REMARK   24  A    between atoms: _88  and  _89
REMARK   25  A    between atoms: _89  and  _90
REMARK   26  A    between atoms: _93  and  _95
REMARK   27  A    between atoms: _95  and  _96
REMARK   28  A    between atoms: _95  and  _98
REMARK   29  A    between atoms: _98  and  _99
REMARK   30  A    between atoms: _99  and  _100
REMARK   31  A    between atoms: _102  and  _104
REMARK   32  A    between atoms: _104  and  _105
REMARK   33  A    between atoms: _104  and  _107
REMARK   34  A    between atoms: _107  and  _108
REMARK   35  A    between atoms: _111  and  _113
REMARK   36  A    between atoms: _113  and  _114
REMARK   37  A    between atoms: _113  and  _116
REMARK   38  A    between atoms: _116  and  _117
REMARK   39  A    between atoms: _117  and  _118
REMARK   40  A    between atoms: _118  and  ZN_415
REMARK   41  A    between atoms: _121  and  _122
REMARK   42  A    between atoms: _127  and  _129
REMARK   43  A    between atoms: _129  and  _130
REMARK   44  A    between atoms: _129  and  _132
REMARK   45  A    between atoms: _132  and  _133
REMARK   46  A    between atoms: _139  and  _141
REMARK   47  A    between atoms: _141  and  _142
REMARK   48  A    between atoms: _141  and  _144
REMARK   49  A    between atoms: _144  and  _145
REMARK   50  A    between atoms: _145  and  _146
REMARK   51  A    between atoms: _146  and  _147
REMARK   52  A    between atoms: _156  and  _158
REMARK   53  A    between atoms: _158  and  _159
REMARK   54  A    between atoms: _158  and  _161
REMARK   55  A    between atoms: _161  and  _162
REMARK   56  A    between atoms: _167  and  _168
REMARK   57  A    between atoms: _170  and  _172
REMARK   58  A    between atoms: _172  and  _173
REMARK   59  A    between atoms: _172  and  _175
REMARK   60  A    between atoms: _175  and  _176
REMARK   61  A    between atoms: _178  and  _180
REMARK   62  A    between atoms: _180  and  _181
REMARK   63  A    between atoms: _180  and  _183
REMARK   64  A    between atoms: _183  and  _184
REMARK   65  A    between atoms: _189  and  _190
REMARK   66  A    between atoms: _192  and  _194
REMARK   67  A    between atoms: _194  and  _195
REMARK   68  A    between atoms: _194  and  _197
REMARK   69  A    between atoms: _197  and  _198
REMARK   70  A    between atoms: _201  and  _203
REMARK   71  A    between atoms: _203  and  _204
REMARK   72  A    between atoms: _203  and  _206
REMARK   73  A    between atoms: _206  and  _207
REMARK   74  A    between atoms: _210  and  _212
REMARK   75  A    between atoms: _212  and  _213
REMARK   76  A    between atoms: _212  and  _215
REMARK   77  A    between atoms: _215  and  _216
REMARK   78  A    between atoms: _216  and  _217
REMARK   79  A    between atoms: _217  and  _218
REMARK   80  A    between atoms: _227  and  _229
REMARK   81  A    between atoms: _229  and  _230
REMARK   82  A    between atoms: _232  and  _234
REMARK   83  A    between atoms: _234  and  _235
REMARK   84  A    between atoms: _234  and  _237
REMARK   85  A    between atoms: _237  and  _238
REMARK   86  A    between atoms: _241  and  _243
REMARK   87  A    between atoms: _243  and  _244
REMARK   88  A    between atoms: _243  and  _246
REMARK   89  A    between atoms: _246  and  _247
REMARK   90  A    between atoms: _250  and  _252
REMARK   91  A    between atoms: _252  and  _253
REMARK   92  A    between atoms: _252  and  _255
REMARK   93  A    between atoms: _255  and  _256
REMARK   94  A    between atoms: _262  and  _264
REMARK   95  A    between atoms: _264  and  _265
REMARK   96  A    between atoms: _264  and  _267
REMARK   97  A    between atoms: _267  and  _268
REMARK   98  A    between atoms: _268  and  _269
REMARK   99  A    between atoms: _269  and  _270
REMARK  100  A    between atoms: _279  and  _281
REMARK  101  A    between atoms: _281  and  _282
REMARK  102  A    between atoms: _281  and  _284
REMARK  103  A    between atoms: _284  and  _285
REMARK  104  A    between atoms: _295  and  _297
REMARK  105  A    between atoms: _297  and  _298
REMARK  106  A    between atoms: _297  and  _300
REMARK  107  A    between atoms: _300  and  _301
REMARK  108  A    between atoms: _306  and  _308
REMARK  109  A    between atoms: _308  and  _309
REMARK  110  A    between atoms: _308  and  _311
REMARK  111  A    between atoms: _311  and  _312
REMARK  112  A    between atoms: _316  and  ZN_415
REMARK  113  A    between atoms: _317  and  _319
REMARK  114  A    between atoms: _319  and  _320
REMARK  115  A    between atoms: _319  and  _322
REMARK  116  A    between atoms: _322  and  _323
REMARK  117  A    between atoms: _326  and  _328
REMARK  118  A    between atoms: _328  and  _329
REMARK  119  A    between atoms: _331  and  _333
REMARK  120  A    between atoms: _333  and  _334
REMARK  121  A    between atoms: _333  and  _336
REMARK  122  A    between atoms: _336  and  _337
REMARK  123  A    between atoms: _340  and  _342
REMARK  124  A    between atoms: _342  and  _343
REMARK  125  A    between atoms: _342  and  _345
REMARK  126  A    between atoms: _345  and  _346
REMARK  127  A    between atoms: _349  and  _351
REMARK  128  A    between atoms: _351  and  _352
REMARK  129  A    between atoms: _355  and  _357
REMARK  130  A    between atoms: _357  and  _358
REMARK  131  A    between atoms: _357  and  _360
REMARK  132  A    between atoms: _360  and  _361
REMARK  133  A    between atoms: _366  and  _367
REMARK  134  A    between atoms: _369  and  _371
REMARK  135  A    between atoms: _371  and  _372
REMARK  136  A    between atoms: _371  and  _374
REMARK  137  A    between atoms: _374  and  _375
REMARK  138  A    between atoms: _375  and  _376
REMARK  139  A    between atoms: _379  and  _381
REMARK  140  A    between atoms: _381  and  _382
REMARK  141  A    between atoms: _381  and  _384
REMARK  142  A    between atoms: _384  and  _385
REMARK  143  A    between atoms: _385  and  _386
REMARK  144  A    between atoms: _386  and  _387
REMARK  145  A    between atoms: _396  and  _398
REMARK  146  A    between atoms: _398  and  _399
REMARK  147  A    between atoms: _401  and  _403
REMARK  148  A    between atoms: _403  and  _404
REMARK  149  A    between atoms: _403  and  _406
REMARK  150  A    between atoms: _406  and  _407
REMARK  151  A    between atoms: _410  and  _412
REMARK  152  A    between atoms: _412  and  _413
REMARK                            x       y       z     vdW  Elec       q    Type
REMARK                         _______ _______ _______ _____ _____    ______ ____
ROOT
ATOM      1  O   HOH     1      24.138  71.567  11.116  0.00  0.00    +0.000 OA
ENDROOT
TORSDOF 0
REMARK  Name = ../refined-set-2016/3ddf/3ddf_pocket.pdb
REMARK  152 active torsions:
REMARK  status: ('A' for Active; 'I' for Inactive)
REMARK    1  A    between atoms: _1  and  _3
REMARK    2  A    between atoms: _14  and  _17
REMARK    3  A    between atoms: _17  and  _18
REMARK    4  A    between atoms: _25  and  _26
REMARK    5  A    between atoms: _33  and  _34
REMARK    6  A    between atoms: _39  and  _41
REMARK    7  A    between atoms: _41  and  _42
REMARK    8  A    between atoms: _44  and  _46
REMARK    9  A    between atoms: _46  and  _47
REMARK   10  A    between atoms: _46  and  _49
REMARK   11  A    between atoms: _49  and  _50
REMARK   12  A    between atoms: _60  and  _62
REMARK   13  A    between atoms: _62  and  _63
REMARK   14  A    between atoms: _62  and  _65
REMARK   15  A    between atoms: _65  and  _66
REMARK   16  A    between atoms: _69  and  _71
REMARK   17  A    between atoms: _71  and  _72
REMARK   18  A    between atoms: _71  and  _74
REMARK   19  A    between atoms: _74  and  _75
REMARK   20  A    between atoms: _80  and  _81
REMARK   21  A    between atoms: _83  and  _85
REMARK   22  A    between atoms: _85  and  _86
REMARK   23  A    between atoms: _85  and  _88
REMARK   24  A    between atoms: _88  and  _89
REMARK   25  A    between atoms: _89  and  _90
REMARK   26  A    between atoms: _93  and  _95
REMARK   27  A    between atoms: _95  and  _96
REMARK   28  A    between atoms: _95  and  _98
REMARK   29  A    between atoms: _98  and  _99
REMARK   30  A    between atoms: _99  and  _100
REMARK   31  A    between atoms: _102  and  _104
REMARK   32  A    between atoms: _104  and  _105
REMARK   33  A    between atoms: _104  and  _107
REMARK   34  A    between atoms: _107  and  _108
REMARK   35  A    between atoms: _111  and  _113
REMARK   36  A    between atoms: _113  and  _114
REMARK   37  A    between atoms: _113  and  _116
REMARK   38  A    between atoms: _116  and  _117
REMARK   39  A    between atoms: _117  and  _118
REMARK   40  A    between atoms: _118  and  ZN_415
REMARK   41  A    between atoms: _121  and  _122
REMARK   42  A    between atoms: _127  and  _129
REMARK   43  A    between atoms: _129  and  _130
REMARK   44  A    between atoms: _129  and  _132
REMARK   45  A    between atoms: _132  and  _133
REMARK   46  A    between atoms: _139  and  _141
REMARK   47  A    between atoms: _141  and  _142
REMARK   48  A    between atoms: _141  and  _144
REMARK   49  A    between atoms: _144  and  _145
REMARK   50  A    between atoms: _145  and  _146
REMARK   51  A    between atoms: _146  and  _147
REMARK   52  A    between atoms: _156  and  _158
REMARK   53  A    between atoms: _158  and  _159
REMARK   54  A    between atoms: _158  and  _161
REMARK   55  A    between atoms: _161  and  _162
REMARK   56  A    between atoms: _167  and  _168
REMARK   57  A    between atoms: _170  and  _172
REMARK   58  A    between atoms: _172  and  _173
REMARK   59  A    between atoms: _172  and  _175
REMARK   60  A    between atoms: _175  and  _176
REMARK   61  A    between atoms: _178  and  _180
REMARK   62  A    between atoms: _180  and  _181
REMARK   63  A    between atoms: _180  and  _183
REMARK   64  A    between atoms: _183  and  _184
REMARK   65  A    between atoms: _189  and  _190
REMARK   66  A    between atoms: _192  and  _194
REMARK   67  A    between atoms: _194  and  _195
REMARK   68  A    between atoms: _194  and  _197
REMARK   69  A    between atoms: _197  and  _198
REMARK   70  A    between atoms: _201  and  _203
REMARK   71  A    between atoms: _203  and  _204
REMARK   72  A    between atoms: _203  and  _206
REMARK   73  A    between atoms: _206  and  _207
REMARK   74  A    between atoms: _210  and  _212
REMARK   75  A    between atoms: _212  and  _213
REMARK   76  A    between atoms: _212  and  _215
REMARK   77  A    between atoms: _215  and  _216
REMARK   78  A    between atoms: _216  and  _217
REMARK   79  A    between atoms: _217  and  _218
REMARK   80  A    between atoms: _227  and  _229
REMARK   81  A    between atoms: _229  and  _230
REMARK   82  A    between atoms: _232  and  _234
REMARK   83  A    between atoms: _234  and  _235
REMARK   84  A    between atoms: _234  and  _237
REMARK   85  A    between atoms: _237  and  _238
REMARK   86  A    between atoms: _241  and  _243
REMARK   87  A    between atoms: _243  and  _244
REMARK   88  A    between atoms: _243  and  _246
REMARK   89  A    between atoms: _246  and  _247
REMARK   90  A    between atoms: _250  and  _252
REMARK   91  A    between atoms: _252  and  _253
REMARK   92  A    between atoms: _252  and  _255
REMARK   93  A    between atoms: _255  and  _256
REMARK   94  A    between atoms: _262  and  _264
REMARK   95  A    between atoms: _264  and  _265
REMARK   96  A    between atoms: _264  and  _267
REMARK   97  A    between atoms: _267  and  _268
REMARK   98  A    between atoms: _268  and  _269
REMARK   99  A    between atoms: _269  and  _270
REMARK  100  A    between atoms: _279  and  _281
REMARK  101  A    between atoms: _281  and  _282
REMARK  102  A    between atoms: _281  and  _284
REMARK  103  A    between atoms: _284  and  _285
REMARK  104  A    between atoms: _295  and  _297
REMARK  105  A    between atoms: _297  and  _298
REMARK  106  A    between atoms: _297  and  _300
REMARK  107  A    between atoms: _300  and  _301
REMARK  108  A    between atoms: _306  and  _308
REMARK  109  A    between atoms: _308  and  _309
REMARK  110  A    between atoms: _308  and  _311
REMARK  111  A    between atoms: _311  and  _312
REMARK  112  A    between atoms: _316  and  ZN_415
REMARK  113  A    between atoms: _317  and  _319
REMARK  114  A    between atoms: _319  and  _320
REMARK  115  A    between atoms: _319  and  _322
REMARK  116  A    between atoms: _322  and  _323
REMARK  117  A    between atoms: _326  and  _328
REMARK  118  A    between atoms: _328  and  _329
REMARK  119  A    between atoms: _331  and  _333
REMARK  120  A    between atoms: _333  and  _334
REMARK  121  A    between atoms: _333  and  _336
REMARK  122  A    between atoms: _336  and  _337
REMARK  123  A    between atoms: _340  and  _342
REMARK  124  A    between atoms: _342  and  _343
REMARK  125  A    between atoms: _342  and  _345
REMARK  126  A    between atoms: _345  and  _346
REMARK  127  A    between atoms: _349  and  _351
REMARK  128  A    between atoms: _351  and  _352
REMARK  129  A    between atoms: _355  and  _357
REMARK  130  A    between atoms: _357  and  _358
REMARK  131  A    between atoms: _357  and  _360
REMARK  132  A    between atoms: _360  and  _361
REMARK  133  A    between atoms: _366  and  _367
REMARK  134  A    between atoms: _369  and  _371
REMARK  135  A    between atoms: _371  and  _372
REMARK  136  A    between atoms: _371  and  _374
REMARK  137  A    between atoms: _374  and  _375
REMARK  138  A    between atoms: _375  and  _376
REMARK  139  A    between atoms: _379  and  _381
REMARK  140  A    between atoms: _381  and  _382
REMARK  141  A    between atoms: _381  and  _384
REMARK  142  A    between atoms: _384  and  _385
REMARK  143  A    between atoms: _385  and  _386
REMARK  144  A    between atoms: _386  and  _387
REMARK  145  A    between atoms: _396  and  _398
REMARK  146  A    between atoms: _398  and  _399
REMARK  147  A    between atoms: _401  and  _403
REMARK  148  A    between atoms: _403  and  _404
REMARK  149  A    between atoms: _403  and  _406
REMARK  150  A    between atoms: _406  and  _407
REMARK  151  A    between atoms: _410  and  _412
REMARK  152  A    between atoms: _412  and  _413
REMARK                            x       y       z     vdW  Elec       q    Type
REMARK                         _______ _______ _______ _____ _____    ______ ____
ROOT
ATOM      1  O   HOH     1      30.757  69.726  19.877  0.00  0.00    +0.000 OA
ENDROOT
TORSDOF 0
REMARK  Name = ../refined-set-2016/3ddf/3ddf_pocket.pdb
REMARK  152 active torsions:
REMARK  status: ('A' for Active; 'I' for Inactive)
REMARK    1  A    between atoms: _1  and  _3
REMARK    2  A    between atoms: _14  and  _17
REMARK    3  A    between atoms: _17  and  _18
REMARK    4  A    between atoms: _25  and  _26
REMARK    5  A    between atoms: _33  and  _34
REMARK    6  A    between atoms: _39  and  _41
REMARK    7  A    between atoms: _41  and  _42
REMARK    8  A    between atoms: _44  and  _46
REMARK    9  A    between atoms: _46  and  _47
REMARK   10  A    between atoms: _46  and  _49
REMARK   11  A    between atoms: _49  and  _50
REMARK   12  A    between atoms: _60  and  _62
REMARK   13  A    between atoms: _62  and  _63
REMARK   14  A    between atoms: _62  and  _65
REMARK   15  A    between atoms: _65  and  _66
REMARK   16  A    between atoms: _69  and  _71
REMARK   17  A    between atoms: _71  and  _72
REMARK   18  A    between atoms: _71  and  _74
REMARK   19  A    between atoms: _74  and  _75
REMARK   20  A    between atoms: _80  and  _81
REMARK   21  A    between atoms: _83  and  _85
REMARK   22  A    between atoms: _85  and  _86
REMARK   23  A    between atoms: _85  and  _88
REMARK   24  A    between atoms: _88  and  _89
REMARK   25  A    between atoms: _89  and  _90
REMARK   26  A    between atoms: _93  and  _95
REMARK   27  A    between atoms: _95  and  _96
REMARK   28  A    between atoms: _95  and  _98
REMARK   29  A    between atoms: _98  and  _99
REMARK   30  A    between atoms: _99  and  _100
REMARK   31  A    between atoms: _102  and  _104
REMARK   32  A    between atoms: _104  and  _105
REMARK   33  A    between atoms: _104  and  _107
REMARK   34  A    between atoms: _107  and  _108
REMARK   35  A    between atoms: _111  and  _113
REMARK   36  A    between atoms: _113  and  _114
REMARK   37  A    between atoms: _113  and  _116
REMARK   38  A    between atoms: _116  and  _117
REMARK   39  A    between atoms: _117  and  _118
REMARK   40  A    between atoms: _118  and  ZN_415
REMARK   41  A    between atoms: _121  and  _122
REMARK   42  A    between atoms: _127  and  _129
REMARK   43  A    between atoms: _129  and  _130
REMARK   44  A    between atoms: _129  and  _132
REMARK   45  A    between atoms: _132  and  _133
REMARK   46  A    between atoms: _139  and  _141
REMARK   47  A    between atoms: _141  and  _142
REMARK   48  A    between atoms: _141  and  _144
REMARK   49  A    between atoms: _144  and  _145
REMARK   50  A    between atoms: _145  and  _146
REMARK   51  A    between atoms: _146  and  _147
REMARK   52  A    between atoms: _156  and  _158
REMARK   53  A    between atoms: _158  and  _159
REMARK   54  A    between atoms: _158  and  _161
REMARK   55  A    between atoms: _161  and  _162
REMARK   56  A    between atoms: _167  and  _168
REMARK   57  A    between atoms: _170  and  _172
REMARK   58  A    between atoms: _172  and  _173
REMARK   59  A    between atoms: _172  and  _175
REMARK   60  A    between atoms: _175  and  _176
REMARK   61  A    between atoms: _178  and  _180
REMARK   62  A    between atoms: _180  and  _181
REMARK   63  A    between atoms: _180  and  _183
REMARK   64  A    between atoms: _183  and  _184
REMARK   65  A    between atoms: _189  and  _190
REMARK   66  A    between atoms: _192  and  _194
REMARK   67  A    between atoms: _194  and  _195
REMARK   68  A    between atoms: _194  and  _197
REMARK   69  A    between atoms: _197  and  _198
REMARK   70  A    between atoms: _201  and  _203
REMARK   71  A    between atoms: _203  and  _204
REMARK   72  A    between atoms: _203  and  _206
REMARK   73  A    between atoms: _206  and  _207
REMARK   74  A    between atoms: _210  and  _212
REMARK   75  A    between atoms: _212  and  _213
REMARK   76  A    between atoms: _212  and  _215
REMARK   77  A    between atoms: _215  and  _216
REMARK   78  A    between atoms: _216  and  _217
REMARK   79  A    between atoms: _217  and  _218
REMARK   80  A    between atoms: _227  and  _229
REMARK   81  A    between atoms: _229  and  _230
REMARK   82  A    between atoms: _232  and  _234
REMARK   83  A    between atoms: _234  and  _235
REMARK   84  A    between atoms: _234  and  _237
REMARK   85  A    between atoms: _237  and  _238
REMARK   86  A    between atoms: _241  and  _243
REMARK   87  A    between atoms: _243  and  _244
REMARK   88  A    between atoms: _243  and  _246
REMARK   89  A    between atoms: _246  and  _247
REMARK   90  A    between atoms: _250  and  _252
REMARK   91  A    between atoms: _252  and  _253
REMARK   92  A    between atoms: _252  and  _255
REMARK   93  A    between atoms: _255  and  _256
REMARK   94  A    between atoms: _262  and  _264
REMARK   95  A    between atoms: _264  and  _265
REMARK   96  A    between atoms: _264  and  _267
REMARK   97  A    between atoms: _267  and  _268
REMARK   98  A    between atoms: _268  and  _269
REMARK   99  A    between atoms: _269  and  _270
REMARK  100  A    between atoms: _279  and  _281
REMARK  101  A    between atoms: _281  and  _282
REMARK  102  A    between atoms: _281  and  _284
REMARK  103  A    between atoms: _284  and  _285
REMARK  104  A    between atoms: _295  and  _297
REMARK  105  A    between atoms: _297  and  _298
REMARK  106  A    between atoms: _297  and  _300
REMARK  107  A    between atoms: _300  and  _301
REMARK  108  A    between atoms: _306  and  _308
REMARK  109  A    between atoms: _308  and  _309
REMARK  110  A    between atoms: _308  and  _311
REMARK  111  A    between atoms: _311  and  _312
REMARK  112  A    between atoms: _316  and  ZN_415
REMARK  113  A    between atoms: _317  and  _319
REMARK  114  A    between atoms: _319  and  _320
REMARK  115  A    between atoms: _319  and  _322
REMARK  116  A    between atoms: _322  and  _323
REMARK  117  A    between atoms: _326  and  _328
REMARK  118  A    between atoms: _328  and  _329
REMARK  119  A    between atoms: _331  and  _333
REMARK  120  A    between atoms: _333  and  _334
REMARK  121  A    between atoms: _333  and  _336
REMARK  122  A    between atoms: _336  and  _337
REMARK  123  A    between atoms: _340  and  _342
REMARK  124  A    between atoms: _342  and  _343
REMARK  125  A    between atoms: _342  and  _345
REMARK  126  A    between atoms: _345  and  _346
REMARK  127  A    between atoms: _349  and  _351
REMARK  128  A    between atoms: _351  and  _352
REMARK  129  A    between atoms: _355  and  _357
REMARK  130  A    between atoms: _357  and  _358
REMARK  131  A    between atoms: _357  and  _360
REMARK  132  A    between atoms: _360  and  _361
REMARK  133  A    between atoms: _366  and  _367
REMARK  134  A    between atoms: _369  and  _371
REMARK  135  A    between atoms: _371  and  _372
REMARK  136  A    between atoms: _371  and  _374
REMARK  137  A    between atoms: _374  and  _375
REMARK  138  A    between atoms: _375  and  _376
REMARK  139  A    between atoms: _379  and  _381
REMARK  140  A    between atoms: _381  and  _382
REMARK  141  A    between atoms: _381  and  _384
REMARK  142  A    between atoms: _384  and  _385
REMARK  143  A    between atoms: _385  and  _386
REMARK  144  A    between atoms: _386  and  _387
REMARK  145  A    between atoms: _396  and  _398
REMARK  146  A    between atoms: _398  and  _399
REMARK  147  A    between atoms: _401  and  _403
REMARK  148  A    between atoms: _403  and  _404
REMARK  149  A    between atoms: _403  and  _406
REMARK  150  A    between atoms: _406  and  _407
REMARK  151  A    between atoms: _410  and  _412
REMARK  152  A    between atoms: _412  and  _413
REMARK                            x       y       z     vdW  Elec       q    Type
REMARK                         _______ _______ _______ _____ _____    ______ ____
ROOT
ATOM      1  O   HOH     1      28.086  69.654  18.984  0.00  0.00    +0.000 OA
ENDROOT
TORSDOF 0
