REMARK  Name = ../refined-set-2016/3upk/3upk_pocket.pdb
REMARK  243 active torsions:
REMARK  status: ('A' for Active; 'I' for Inactive)
REMARK    1  A    between atoms: _1  and  _3
REMARK    2  A    between atoms: _3  and  _4
REMARK    3  A    between atoms: _3  and  _6
REMARK    4  A    between atoms: _6  and  _7
REMARK    5  A    between atoms: _7  and  _8
REMARK    6  A    between atoms: _8  and  _9
REMARK    7  A    between atoms: _9  and  _10
REMARK    8  A    between atoms: _16  and  _17
REMARK    9  A    between atoms: _16  and  _19
REMARK   10  A    between atoms: _19  and  _20
REMARK   11  A    between atoms: _25  and  _27
REMARK   12  A    between atoms: _27  and  _28
REMARK   13  A    between atoms: _31  and  _33
REMARK   14  A    between atoms: _33  and  _34
REMARK   15  A    between atoms: _33  and  _36
REMARK   16  A    between atoms: _36  and  _37
REMARK   17  A    between atoms: _41  and  _42
REMARK   18  A    between atoms: _47  and  _49
REMARK   19  A    between atoms: _49  and  _50
REMARK   20  A    between atoms: _49  and  _52
REMARK   21  A    between atoms: _52  and  _53
REMARK   22  A    between atoms: _59  and  _61
REMARK   23  A    between atoms: _61  and  _62
REMARK   24  A    between atoms: _61  and  _64
REMARK   25  A    between atoms: _64  and  _65
REMARK   26  A    between atoms: _68  and  _70
REMARK   27  A    between atoms: _70  and  _71
REMARK   28  A    between atoms: _70  and  _73
REMARK   29  A    between atoms: _73  and  _74
REMARK   30  A    between atoms: _74  and  _75
REMARK   31  A    between atoms: _77  and  _79
REMARK   32  A    between atoms: _79  and  _80
REMARK   33  A    between atoms: _79  and  _82
REMARK   34  A    between atoms: _82  and  _83
REMARK   35  A    between atoms: _83  and  _84
REMARK   36  A    between atoms: _84  and  _85
REMARK   37  A    between atoms: _94  and  _96
REMARK   38  A    between atoms: _96  and  _97
REMARK   39  A    between atoms: _100  and  _102
REMARK   40  A    between atoms: _102  and  _103
REMARK   41  A    between atoms: _102  and  _105
REMARK   42  A    between atoms: _105  and  _106
REMARK   43  A    between atoms: _108  and  _110
REMARK   44  A    between atoms: _110  and  _111
REMARK   45  A    between atoms: _110  and  _113
REMARK   46  A    between atoms: _113  and  _114
REMARK   47  A    between atoms: _117  and  _119
REMARK   48  A    between atoms: _119  and  _120
REMARK   49  A    between atoms: _119  and  _122
REMARK   50  A    between atoms: _122  and  _123
REMARK   51  A    between atoms: _133  and  _135
REMARK   52  A    between atoms: _135  and  _136
REMARK   53  A    between atoms: _135  and  _138
REMARK   54  A    between atoms: _138  and  _139
REMARK   55  A    between atoms: _142  and  _144
REMARK   56  A    between atoms: _144  and  _145
REMARK   57  A    between atoms: _147  and  _149
REMARK   58  A    between atoms: _149  and  _150
REMARK   59  A    between atoms: _153  and  _155
REMARK   60  A    between atoms: _155  and  _156
REMARK   61  A    between atoms: _155  and  _158
REMARK   62  A    between atoms: _158  and  _159
REMARK   63  A    between atoms: _159  and  _160
REMARK   64  A    between atoms: _160  and  _161
REMARK   65  A    between atoms: _171  and  _172
REMARK   66  A    between atoms: _177  and  _179
REMARK   67  A    between atoms: _179  and  _180
REMARK   68  A    between atoms: _179  and  _182
REMARK   69  A    between atoms: _185  and  _187
REMARK   70  A    between atoms: _187  and  _188
REMARK   71  A    between atoms: _187  and  _190
REMARK   72  A    between atoms: _190  and  _191
REMARK   73  A    between atoms: _194  and  _196
REMARK   74  A    between atoms: _196  and  _197
REMARK   75  A    between atoms: _196  and  _199
REMARK   76  A    between atoms: _199  and  _200
REMARK   77  A    between atoms: _203  and  _205
REMARK   78  A    between atoms: _205  and  _206
REMARK   79  A    between atoms: _205  and  _208
REMARK   80  A    between atoms: _208  and  _209
REMARK   81  A    between atoms: _214  and  _216
REMARK   82  A    between atoms: _216  and  _217
REMARK   83  A    between atoms: _216  and  _219
REMARK   84  A    between atoms: _219  and  _220
REMARK   85  A    between atoms: _223  and  _225
REMARK   86  A    between atoms: _225  and  _226
REMARK   87  A    between atoms: _225  and  _228
REMARK   88  A    between atoms: _228  and  _229
REMARK   89  A    between atoms: _235  and  _237
REMARK   90  A    between atoms: _237  and  _238
REMARK   91  A    between atoms: _240  and  _242
REMARK   92  A    between atoms: _242  and  _243
REMARK   93  A    between atoms: _242  and  _245
REMARK   94  A    between atoms: _245  and  _246
REMARK   95  A    between atoms: _246  and  _247
REMARK   96  A    between atoms: _249  and  _251
REMARK   97  A    between atoms: _251  and  _252
REMARK   98  A    between atoms: _251  and  _254
REMARK   99  A    between atoms: _254  and  _255
REMARK  100  A    between atoms: _258  and  _260
REMARK  101  A    between atoms: _260  and  _261
REMARK  102  A    between atoms: _260  and  _263
REMARK  103  A    between atoms: _263  and  _264
REMARK  104  A    between atoms: _264  and  _265
REMARK  105  A    between atoms: _265  and  _266
REMARK  106  A    between atoms: _266  and  _267
REMARK  107  A    between atoms: _271  and  _273
REMARK  108  A    between atoms: _273  and  _274
REMARK  109  A    between atoms: _273  and  _276
REMARK  110  A    between atoms: _279  and  _281
REMARK  111  A    between atoms: _281  and  _282
REMARK  112  A    between atoms: _281  and  _284
REMARK  113  A    between atoms: _284  and  _285
REMARK  114  A    between atoms: _287  and  _289
REMARK  115  A    between atoms: _289  and  _290
REMARK  116  A    between atoms: _289  and  _292
REMARK  117  A    between atoms: _295  and  _297
REMARK  118  A    between atoms: _297  and  _298
REMARK  119  A    between atoms: _300  and  _302
REMARK  120  A    between atoms: _302  and  _303
REMARK  121  A    between atoms: _306  and  _308
REMARK  122  A    between atoms: _308  and  _309
REMARK  123  A    between atoms: _308  and  _311
REMARK  124  A    between atoms: _311  and  _312
REMARK  125  A    between atoms: _315  and  _317
REMARK  126  A    between atoms: _317  and  _318
REMARK  127  A    between atoms: _317  and  _320
REMARK  128  A    between atoms: _323  and  _325
REMARK  129  A    between atoms: _325  and  _326
REMARK  130  A    between atoms: _325  and  _328
REMARK  131  A    between atoms: _328  and  _329
REMARK  132  A    between atoms: _332  and  _334
REMARK  133  A    between atoms: _334  and  _335
REMARK  134  A    between atoms: _338  and  _340
REMARK  135  A    between atoms: _340  and  _341
REMARK  136  A    between atoms: _340  and  _343
REMARK  137  A    between atoms: _343  and  _344
REMARK  138  A    between atoms: _344  and  _345
REMARK  139  A    between atoms: _345  and  _346
REMARK  140  A    between atoms: _355  and  _357
REMARK  141  A    between atoms: _357  and  _358
REMARK  142  A    between atoms: _357  and  _360
REMARK  143  A    between atoms: _360  and  _361
REMARK  144  A    between atoms: _361  and  _362
REMARK  145  A    between atoms: _365  and  _367
REMARK  146  A    between atoms: _367  and  _368
REMARK  147  A    between atoms: _367  and  _370
REMARK  148  A    between atoms: _370  and  _371
REMARK  149  A    between atoms: _371  and  _372
REMARK  150  A    between atoms: _375  and  _377
REMARK  151  A    between atoms: _377  and  _378
REMARK  152  A    between atoms: _377  and  _380
REMARK  153  A    between atoms: _380  and  _381
REMARK  154  A    between atoms: _384  and  _386
REMARK  155  A    between atoms: _386  and  _387
REMARK  156  A    between atoms: _386  and  _389
REMARK  157  A    between atoms: _389  and  _390
REMARK  158  A    between atoms: _390  and  _391
REMARK  159  A    between atoms: _391  and  _392
REMARK  160  A    between atoms: _401  and  _403
REMARK  161  A    between atoms: _403  and  _404
REMARK  162  A    between atoms: _403  and  _406
REMARK  163  A    between atoms: _406  and  _407
REMARK  164  A    between atoms: _410  and  _412
REMARK  165  A    between atoms: _412  and  _413
REMARK  166  A    between atoms: _412  and  _415
REMARK  167  A    between atoms: _415  and  _416
REMARK  168  A    between atoms: _419  and  _421
REMARK  169  A    between atoms: _421  and  _422
REMARK  170  A    between atoms: _426  and  _427
REMARK  171  A    between atoms: _432  and  _434
REMARK  172  A    between atoms: _434  and  _435
REMARK  173  A    between atoms: _434  and  _437
REMARK  174  A    between atoms: _437  and  _438
REMARK  175  A    between atoms: _443  and  _445
REMARK  176  A    between atoms: _445  and  _446
REMARK  177  A    between atoms: _445  and  _448
REMARK  178  A    between atoms: _448  and  _449
REMARK  179  A    between atoms: _456  and  _457
REMARK  180  A    between atoms: _462  and  _464
REMARK  181  A    between atoms: _464  and  _465
REMARK  182  A    between atoms: _464  and  _467
REMARK  183  A    between atoms: _467  and  _468
REMARK  184  A    between atoms: _471  and  _473
REMARK  185  A    between atoms: _473  and  _474
REMARK  186  A    between atoms: _473  and  _476
REMARK  187  A    between atoms: _476  and  _477
REMARK  188  A    between atoms: _480  and  _482
REMARK  189  A    between atoms: _482  and  _483
REMARK  190  A    between atoms: _482  and  _485
REMARK  191  A    between atoms: _485  and  _486
REMARK  192  A    between atoms: _486  and  _487
REMARK  193  A    between atoms: _489  and  _491
REMARK  194  A    between atoms: _491  and  _492
REMARK  195  A    between atoms: _491  and  _494
REMARK  196  A    between atoms: _494  and  _495
REMARK  197  A    between atoms: _495  and  _496
REMARK  198  A    between atoms: _501  and  _503
REMARK  199  A    between atoms: _503  and  _504
REMARK  200  A    between atoms: _503  and  _506
REMARK  201  A    between atoms: _506  and  _507
REMARK  202  A    between atoms: _507  and  _508
REMARK  203  A    between atoms: _511  and  _513
REMARK  204  A    between atoms: _513  and  _514
REMARK  205  A    between atoms: _513  and  _516
REMARK  206  A    between atoms: _516  and  _517
REMARK  207  A    between atoms: _520  and  _522
REMARK  208  A    between atoms: _522  and  _523
REMARK  209  A    between atoms: _522  and  _525
REMARK  210  A    between atoms: _525  and  _526
REMARK  211  A    between atoms: _529  and  _531
REMARK  212  A    between atoms: _531  and  _532
REMARK  213  A    between atoms: _531  and  _534
REMARK  214  A    between atoms: _534  and  _535
REMARK  215  A    between atoms: _543  and  _544
REMARK  216  A    between atoms: _543  and  _546
REMARK  217  A    between atoms: _546  and  _547
REMARK  218  A    between atoms: _547  and  _548
REMARK  219  A    between atoms: _551  and  _553
REMARK  220  A    between atoms: _553  and  _554
REMARK  221  A    between atoms: _553  and  _556
REMARK  222  A    between atoms: _556  and  _557
REMARK  223  A    between atoms: _562  and  _564
REMARK  224  A    between atoms: _564  and  _565
REMARK  225  A    between atoms: _564  and  _567
REMARK  226  A    between atoms: _567  and  _568
REMARK  227  A    between atoms: _568  and  _569
REMARK  228  A    between atoms: _569  and  _570
REMARK  229  A    between atoms: _579  and  _581
REMARK  230  A    between atoms: _581  and  _582
REMARK  231  A    between atoms: _581  and  _584
REMARK  232  A    between atoms: _584  and  _585
REMARK  233  A    between atoms: _590  and  _591
REMARK  234  A    between atoms: _590  and  _593
REMARK  235  A    between atoms: _593  and  _594
REMARK  236  A    between atoms: _597  and  _599
REMARK  237  A    between atoms: _599  and  _600
REMARK  238  A    between atoms: _599  and  _602
REMARK  239  A    between atoms: _602  and  _603
REMARK  240  A    between atoms: _603  and  _604
REMARK  241  A    between atoms: _604  and  _605
REMARK  242  A    between atoms: _614  and  _616
REMARK  243  A    between atoms: _616  and  _617
REMARK                            x       y       z     vdW  Elec       q    Type
REMARK                         _______ _______ _______ _____ _____    ______ ____
ROOT
ATOM      1  C   LYS A   1      91.266  -2.505 117.321  0.00  0.00    +0.242 C 
ATOM      2  N   ASN A   2      91.096  -2.763 118.621  0.00  0.00    -0.282 N 
ATOM      3  CA  ASN A   2      91.121  -1.721 119.639  0.00  0.00    +0.091 C 
ATOM      4  H   ASN A   2      90.940  -3.747 118.918  0.00  0.00    +0.155 HD
ATOM      5  O   LYS A   1      91.476  -1.378 116.866  0.00  0.00    -0.273 OA
ENDROOT
BRANCH   3   6
ATOM      6  C   ASN A   2      92.425  -0.995 120.000  0.00  0.00    +0.256 C 
ATOM      7  O   ASN A   2      92.419  -0.032 120.764  0.00  0.00    -0.269 OA
ATOM      8  N   ALA A   3      93.536  -1.499 119.458  0.00  0.00    -0.295 N 
ATOM      9  H   ALA A   3      93.464  -2.368 118.891  0.00  0.00    +0.150 HD
BRANCH   8  10
ATOM     10  CA  ALA A   3      94.853  -0.878 119.629  0.00  0.00    +0.137 C 
ATOM     11  CB  ALA A   3      95.912  -1.929 119.984  0.00  0.00    +0.030 C 
BRANCH  10  12
ATOM     12  C   ALA A   3      95.176  -0.223 118.272  0.00  0.00    +0.227 C 
ATOM     13  O   ALA A   3      95.626   0.932 118.200  0.00  0.00    -0.286 OA
ENDBRANCH  10  12
ENDBRANCH   8  10
ENDBRANCH   3   6
BRANCH   1  14
ATOM     14  CA  LYS A   1      91.172  -3.721 116.400  0.00  0.00    +0.145 C 
BRANCH  14  15
ATOM     15  N   LYS A   1      91.916  -4.809 117.010  0.00  0.00    -0.238 NA
ATOM     16  H   LYS A   1      91.443  -5.720 117.175  0.00  0.00    +0.142 HD
ENDBRANCH  14  15
BRANCH  14  17
ATOM     17  CB  LYS A   1      89.722  -4.091 116.115  0.00  0.00    +0.026 C 
BRANCH  17  18
ATOM     18  CG  LYS A   1      88.841  -2.914 115.673  0.00  0.00    -0.000 C 
BRANCH  18  19
ATOM     19  CD  LYS A   1      87.388  -3.346 115.503  0.00  0.00    -0.024 C 
BRANCH  19  20
ATOM     20  CE  LYS A   1      86.580  -3.193 116.780  0.00  0.00    -0.086 C 
BRANCH  20  21
ATOM     21  NZ  LYS A   1      86.253  -1.761 117.075  0.00  0.00    +0.380 N 
ATOM     22  HZ1 LYS A   1      85.701  -1.707 117.955  0.00  0.00    -0.089 HD
ATOM     23  HZ2 LYS A   1      87.135  -1.221 117.183  0.00  0.00    -0.089 HD
ATOM     24  HZ3 LYS A   1      85.697  -1.365 116.291  0.00  0.00    -0.089 HD
ENDBRANCH  20  21
ENDBRANCH  19  20
ENDBRANCH  18  19
ENDBRANCH  17  18
ENDBRANCH  14  17
ENDBRANCH   1  14
BRANCH   3  25
ATOM     25  CB  ASN A   2      90.065  -1.863 120.739  0.00  0.00    +0.131 C 
BRANCH  25  26
ATOM     26  CG  ASN A   2      88.639  -1.959 120.188  0.00  0.00    +0.225 C 
ATOM     27  ND2 ASN A   2      87.777  -2.621 120.930  0.00  0.00    -0.328 N 
ATOM     28 HD21 ASN A   2      88.087  -3.063 121.819  0.00  0.00    +0.145 HD
ATOM     29 HD22 ASN A   2      86.785  -2.702 120.628  0.00  0.00    +0.145 HD
ATOM     30  OD1 ASN A   2      88.320  -1.420 119.130  0.00  0.00    -0.275 OA
ENDBRANCH  25  26
ENDBRANCH   3  25
TORSDOF 12
REMARK  Name = ../refined-set-2016/3upk/3upk_pocket.pdb
REMARK  243 active torsions:
REMARK  status: ('A' for Active; 'I' for Inactive)
REMARK    1  A    between atoms: _1  and  _3
REMARK    2  A    between atoms: _3  and  _4
REMARK    3  A    between atoms: _3  and  _6
REMARK    4  A    between atoms: _6  and  _7
REMARK    5  A    between atoms: _7  and  _8
REMARK    6  A    between atoms: _8  and  _9
REMARK    7  A    between atoms: _9  and  _10
REMARK    8  A    between atoms: _16  and  _17
REMARK    9  A    between atoms: _16  and  _19
REMARK   10  A    between atoms: _19  and  _20
REMARK   11  A    between atoms: _25  and  _27
REMARK   12  A    between atoms: _27  and  _28
REMARK   13  A    between atoms: _31  and  _33
REMARK   14  A    between atoms: _33  and  _34
REMARK   15  A    between atoms: _33  and  _36
REMARK   16  A    between atoms: _36  and  _37
REMARK   17  A    between atoms: _41  and  _42
REMARK   18  A    between atoms: _47  and  _49
REMARK   19  A    between atoms: _49  and  _50
REMARK   20  A    between atoms: _49  and  _52
REMARK   21  A    between atoms: _52  and  _53
REMARK   22  A    between atoms: _59  and  _61
REMARK   23  A    between atoms: _61  and  _62
REMARK   24  A    between atoms: _61  and  _64
REMARK   25  A    between atoms: _64  and  _65
REMARK   26  A    between atoms: _68  and  _70
REMARK   27  A    between atoms: _70  and  _71
REMARK   28  A    between atoms: _70  and  _73
REMARK   29  A    between atoms: _73  and  _74
REMARK   30  A    between atoms: _74  and  _75
REMARK   31  A    between atoms: _77  and  _79
REMARK   32  A    between atoms: _79  and  _80
REMARK   33  A    between atoms: _79  and  _82
REMARK   34  A    between atoms: _82  and  _83
REMARK   35  A    between atoms: _83  and  _84
REMARK   36  A    between atoms: _84  and  _85
REMARK   37  A    between atoms: _94  and  _96
REMARK   38  A    between atoms: _96  and  _97
REMARK   39  A    between atoms: _100  and  _102
REMARK   40  A    between atoms: _102  and  _103
REMARK   41  A    between atoms: _102  and  _105
REMARK   42  A    between atoms: _105  and  _106
REMARK   43  A    between atoms: _108  and  _110
REMARK   44  A    between atoms: _110  and  _111
REMARK   45  A    between atoms: _110  and  _113
REMARK   46  A    between atoms: _113  and  _114
REMARK   47  A    between atoms: _117  and  _119
REMARK   48  A    between atoms: _119  and  _120
REMARK   49  A    between atoms: _119  and  _122
REMARK   50  A    between atoms: _122  and  _123
REMARK   51  A    between atoms: _133  and  _135
REMARK   52  A    between atoms: _135  and  _136
REMARK   53  A    between atoms: _135  and  _138
REMARK   54  A    between atoms: _138  and  _139
REMARK   55  A    between atoms: _142  and  _144
REMARK   56  A    between atoms: _144  and  _145
REMARK   57  A    between atoms: _147  and  _149
REMARK   58  A    between atoms: _149  and  _150
REMARK   59  A    between atoms: _153  and  _155
REMARK   60  A    between atoms: _155  and  _156
REMARK   61  A    between atoms: _155  and  _158
REMARK   62  A    between atoms: _158  and  _159
REMARK   63  A    between atoms: _159  and  _160
REMARK   64  A    between atoms: _160  and  _161
REMARK   65  A    between atoms: _171  and  _172
REMARK   66  A    between atoms: _177  and  _179
REMARK   67  A    between atoms: _179  and  _180
REMARK   68  A    between atoms: _179  and  _182
REMARK   69  A    between atoms: _185  and  _187
REMARK   70  A    between atoms: _187  and  _188
REMARK   71  A    between atoms: _187  and  _190
REMARK   72  A    between atoms: _190  and  _191
REMARK   73  A    between atoms: _194  and  _196
REMARK   74  A    between atoms: _196  and  _197
REMARK   75  A    between atoms: _196  and  _199
REMARK   76  A    between atoms: _199  and  _200
REMARK   77  A    between atoms: _203  and  _205
REMARK   78  A    between atoms: _205  and  _206
REMARK   79  A    between atoms: _205  and  _208
REMARK   80  A    between atoms: _208  and  _209
REMARK   81  A    between atoms: _214  and  _216
REMARK   82  A    between atoms: _216  and  _217
REMARK   83  A    between atoms: _216  and  _219
REMARK   84  A    between atoms: _219  and  _220
REMARK   85  A    between atoms: _223  and  _225
REMARK   86  A    between atoms: _225  and  _226
REMARK   87  A    between atoms: _225  and  _228
REMARK   88  A    between atoms: _228  and  _229
REMARK   89  A    between atoms: _235  and  _237
REMARK   90  A    between atoms: _237  and  _238
REMARK   91  A    between atoms: _240  and  _242
REMARK   92  A    between atoms: _242  and  _243
REMARK   93  A    between atoms: _242  and  _245
REMARK   94  A    between atoms: _245  and  _246
REMARK   95  A    between atoms: _246  and  _247
REMARK   96  A    between atoms: _249  and  _251
REMARK   97  A    between atoms: _251  and  _252
REMARK   98  A    between atoms: _251  and  _254
REMARK   99  A    between atoms: _254  and  _255
REMARK  100  A    between atoms: _258  and  _260
REMARK  101  A    between atoms: _260  and  _261
REMARK  102  A    between atoms: _260  and  _263
REMARK  103  A    between atoms: _263  and  _264
REMARK  104  A    between atoms: _264  and  _265
REMARK  105  A    between atoms: _265  and  _266
REMARK  106  A    between atoms: _266  and  _267
REMARK  107  A    between atoms: _271  and  _273
REMARK  108  A    between atoms: _273  and  _274
REMARK  109  A    between atoms: _273  and  _276
REMARK  110  A    between atoms: _279  and  _281
REMARK  111  A    between atoms: _281  and  _282
REMARK  112  A    between atoms: _281  and  _284
REMARK  113  A    between atoms: _284  and  _285
REMARK  114  A    between atoms: _287  and  _289
REMARK  115  A    between atoms: _289  and  _290
REMARK  116  A    between atoms: _289  and  _292
REMARK  117  A    between atoms: _295  and  _297
REMARK  118  A    between atoms: _297  and  _298
REMARK  119  A    between atoms: _300  and  _302
REMARK  120  A    between atoms: _302  and  _303
REMARK  121  A    between atoms: _306  and  _308
REMARK  122  A    between atoms: _308  and  _309
REMARK  123  A    between atoms: _308  and  _311
REMARK  124  A    between atoms: _311  and  _312
REMARK  125  A    between atoms: _315  and  _317
REMARK  126  A    between atoms: _317  and  _318
REMARK  127  A    between atoms: _317  and  _320
REMARK  128  A    between atoms: _323  and  _325
REMARK  129  A    between atoms: _325  and  _326
REMARK  130  A    between atoms: _325  and  _328
REMARK  131  A    between atoms: _328  and  _329
REMARK  132  A    between atoms: _332  and  _334
REMARK  133  A    between atoms: _334  and  _335
REMARK  134  A    between atoms: _338  and  _340
REMARK  135  A    between atoms: _340  and  _341
REMARK  136  A    between atoms: _340  and  _343
REMARK  137  A    between atoms: _343  and  _344
REMARK  138  A    between atoms: _344  and  _345
REMARK  139  A    between atoms: _345  and  _346
REMARK  140  A    between atoms: _355  and  _357
REMARK  141  A    between atoms: _357  and  _358
REMARK  142  A    between atoms: _357  and  _360
REMARK  143  A    between atoms: _360  and  _361
REMARK  144  A    between atoms: _361  and  _362
REMARK  145  A    between atoms: _365  and  _367
REMARK  146  A    between atoms: _367  and  _368
REMARK  147  A    between atoms: _367  and  _370
REMARK  148  A    between atoms: _370  and  _371
REMARK  149  A    between atoms: _371  and  _372
REMARK  150  A    between atoms: _375  and  _377
REMARK  151  A    between atoms: _377  and  _378
REMARK  152  A    between atoms: _377  and  _380
REMARK  153  A    between atoms: _380  and  _381
REMARK  154  A    between atoms: _384  and  _386
REMARK  155  A    between atoms: _386  and  _387
REMARK  156  A    between atoms: _386  and  _389
REMARK  157  A    between atoms: _389  and  _390
REMARK  158  A    between atoms: _390  and  _391
REMARK  159  A    between atoms: _391  and  _392
REMARK  160  A    between atoms: _401  and  _403
REMARK  161  A    between atoms: _403  and  _404
REMARK  162  A    between atoms: _403  and  _406
REMARK  163  A    between atoms: _406  and  _407
REMARK  164  A    between atoms: _410  and  _412
REMARK  165  A    between atoms: _412  and  _413
REMARK  166  A    between atoms: _412  and  _415
REMARK  167  A    between atoms: _415  and  _416
REMARK  168  A    between atoms: _419  and  _421
REMARK  169  A    between atoms: _421  and  _422
REMARK  170  A    between atoms: _426  and  _427
REMARK  171  A    between atoms: _432  and  _434
REMARK  172  A    between atoms: _434  and  _435
REMARK  173  A    between atoms: _434  and  _437
REMARK  174  A    between atoms: _437  and  _438
REMARK  175  A    between atoms: _443  and  _445
REMARK  176  A    between atoms: _445  and  _446
REMARK  177  A    between atoms: _445  and  _448
REMARK  178  A    between atoms: _448  and  _449
REMARK  179  A    between atoms: _456  and  _457
REMARK  180  A    between atoms: _462  and  _464
REMARK  181  A    between atoms: _464  and  _465
REMARK  182  A    between atoms: _464  and  _467
REMARK  183  A    between atoms: _467  and  _468
REMARK  184  A    between atoms: _471  and  _473
REMARK  185  A    between atoms: _473  and  _474
REMARK  186  A    between atoms: _473  and  _476
REMARK  187  A    between atoms: _476  and  _477
REMARK  188  A    between atoms: _480  and  _482
REMARK  189  A    between atoms: _482  and  _483
REMARK  190  A    between atoms: _482  and  _485
REMARK  191  A    between atoms: _485  and  _486
REMARK  192  A    between atoms: _486  and  _487
REMARK  193  A    between atoms: _489  and  _491
REMARK  194  A    between atoms: _491  and  _492
REMARK  195  A    between atoms: _491  and  _494
REMARK  196  A    between atoms: _494  and  _495
REMARK  197  A    between atoms: _495  and  _496
REMARK  198  A    between atoms: _501  and  _503
REMARK  199  A    between atoms: _503  and  _504
REMARK  200  A    between atoms: _503  and  _506
REMARK  201  A    between atoms: _506  and  _507
REMARK  202  A    between atoms: _507  and  _508
REMARK  203  A    between atoms: _511  and  _513
REMARK  204  A    between atoms: _513  and  _514
REMARK  205  A    between atoms: _513  and  _516
REMARK  206  A    between atoms: _516  and  _517
REMARK  207  A    between atoms: _520  and  _522
REMARK  208  A    between atoms: _522  and  _523
REMARK  209  A    between atoms: _522  and  _525
REMARK  210  A    between atoms: _525  and  _526
REMARK  211  A    between atoms: _529  and  _531
REMARK  212  A    between atoms: _531  and  _532
REMARK  213  A    between atoms: _531  and  _534
REMARK  214  A    between atoms: _534  and  _535
REMARK  215  A    between atoms: _543  and  _544
REMARK  216  A    between atoms: _543  and  _546
REMARK  217  A    between atoms: _546  and  _547
REMARK  218  A    between atoms: _547  and  _548
REMARK  219  A    between atoms: _551  and  _553
REMARK  220  A    between atoms: _553  and  _554
REMARK  221  A    between atoms: _553  and  _556
REMARK  222  A    between atoms: _556  and  _557
REMARK  223  A    between atoms: _562  and  _564
REMARK  224  A    between atoms: _564  and  _565
REMARK  225  A    between atoms: _564  and  _567
REMARK  226  A    between atoms: _567  and  _568
REMARK  227  A    between atoms: _568  and  _569
REMARK  228  A    between atoms: _569  and  _570
REMARK  229  A    between atoms: _579  and  _581
REMARK  230  A    between atoms: _581  and  _582
REMARK  231  A    between atoms: _581  and  _584
REMARK  232  A    between atoms: _584  and  _585
REMARK  233  A    between atoms: _590  and  _591
REMARK  234  A    between atoms: _590  and  _593
REMARK  235  A    between atoms: _593  and  _594
REMARK  236  A    between atoms: _597  and  _599
REMARK  237  A    between atoms: _599  and  _600
REMARK  238  A    between atoms: _599  and  _602
REMARK  239  A    between atoms: _602  and  _603
REMARK  240  A    between atoms: _603  and  _604
REMARK  241  A    between atoms: _604  and  _605
REMARK  242  A    between atoms: _614  and  _616
REMARK  243  A    between atoms: _616  and  _617
REMARK                            x       y       z     vdW  Elec       q    Type
REMARK                         _______ _______ _______ _____ _____    ______ ____
ROOT
ATOM      1  C   LEU A   1      92.960   3.502 116.646  0.00  0.00    +0.241 C 
ATOM      2  N   PRO A   2      93.158   3.511 117.980  0.00  0.00    -0.273 N 
ATOM      3  CD  PRO A   2      92.863   2.426 118.932  0.00  0.00    +0.094 C 
ATOM      4  CG  PRO A   2      93.751   2.781 120.109  0.00  0.00    +0.024 C 
ATOM      5  CB  PRO A   2      93.664   4.289 120.143  0.00  0.00    +0.030 C 
ATOM      6  CA  PRO A   2      93.732   4.674 118.658  0.00  0.00    +0.140 C 
ATOM      7  O   LEU A   1      93.249   4.475 115.944  0.00  0.00    -0.273 OA
ENDROOT
BRANCH   6   8
ATOM      8  C   PRO A   2      95.156   4.990 118.186  0.00  0.00    +0.227 C 
ATOM      9  O   PRO A   2      95.580   6.156 118.191  0.00  0.00    -0.286 OA
ENDBRANCH   6   8
BRANCH   1  10
ATOM     10  CA  LEU A   1      92.350   2.228 116.030  0.00  0.00    +0.145 C 
BRANCH  10  11
ATOM     11  N   LEU A   1      93.154   1.004 116.126  0.00  0.00    -0.238 NA
ATOM     12  H   LEU A   1      92.732   0.161 116.565  0.00  0.00    +0.142 HD
ENDBRANCH  10  11
BRANCH  10  13
ATOM     13  CB  LEU A   1      90.866   2.026 116.365  0.00  0.00    +0.026 C 
BRANCH  13  14
ATOM     14  CG  LEU A   1      90.033   1.084 115.483  0.00  0.00    +0.002 C 
ATOM     15  CD2 LEU A   1      88.628   0.947 116.071  0.00  0.00    +0.000 C 
ATOM     16  CD1 LEU A   1      89.976   1.616 114.064  0.00  0.00    +0.000 C 
ENDBRANCH  13  14
ENDBRANCH  10  13
ENDBRANCH   1  10
TORSDOF 5
REMARK  Name = ../refined-set-2016/3upk/3upk_pocket.pdb
REMARK  243 active torsions:
REMARK  status: ('A' for Active; 'I' for Inactive)
REMARK    1  A    between atoms: _1  and  _3
REMARK    2  A    between atoms: _3  and  _4
REMARK    3  A    between atoms: _3  and  _6
REMARK    4  A    between atoms: _6  and  _7
REMARK    5  A    between atoms: _7  and  _8
REMARK    6  A    between atoms: _8  and  _9
REMARK    7  A    between atoms: _9  and  _10
REMARK    8  A    between atoms: _16  and  _17
REMARK    9  A    between atoms: _16  and  _19
REMARK   10  A    between atoms: _19  and  _20
REMARK   11  A    between atoms: _25  and  _27
REMARK   12  A    between atoms: _27  and  _28
REMARK   13  A    between atoms: _31  and  _33
REMARK   14  A    between atoms: _33  and  _34
REMARK   15  A    between atoms: _33  and  _36
REMARK   16  A    between atoms: _36  and  _37
REMARK   17  A    between atoms: _41  and  _42
REMARK   18  A    between atoms: _47  and  _49
REMARK   19  A    between atoms: _49  and  _50
REMARK   20  A    between atoms: _49  and  _52
REMARK   21  A    between atoms: _52  and  _53
REMARK   22  A    between atoms: _59  and  _61
REMARK   23  A    between atoms: _61  and  _62
REMARK   24  A    between atoms: _61  and  _64
REMARK   25  A    between atoms: _64  and  _65
REMARK   26  A    between atoms: _68  and  _70
REMARK   27  A    between atoms: _70  and  _71
REMARK   28  A    between atoms: _70  and  _73
REMARK   29  A    between atoms: _73  and  _74
REMARK   30  A    between atoms: _74  and  _75
REMARK   31  A    between atoms: _77  and  _79
REMARK   32  A    between atoms: _79  and  _80
REMARK   33  A    between atoms: _79  and  _82
REMARK   34  A    between atoms: _82  and  _83
REMARK   35  A    between atoms: _83  and  _84
REMARK   36  A    between atoms: _84  and  _85
REMARK   37  A    between atoms: _94  and  _96
REMARK   38  A    between atoms: _96  and  _97
REMARK   39  A    between atoms: _100  and  _102
REMARK   40  A    between atoms: _102  and  _103
REMARK   41  A    between atoms: _102  and  _105
REMARK   42  A    between atoms: _105  and  _106
REMARK   43  A    between atoms: _108  and  _110
REMARK   44  A    between atoms: _110  and  _111
REMARK   45  A    between atoms: _110  and  _113
REMARK   46  A    between atoms: _113  and  _114
REMARK   47  A    between atoms: _117  and  _119
REMARK   48  A    between atoms: _119  and  _120
REMARK   49  A    between atoms: _119  and  _122
REMARK   50  A    between atoms: _122  and  _123
REMARK   51  A    between atoms: _133  and  _135
REMARK   52  A    between atoms: _135  and  _136
REMARK   53  A    between atoms: _135  and  _138
REMARK   54  A    between atoms: _138  and  _139
REMARK   55  A    between atoms: _142  and  _144
REMARK   56  A    between atoms: _144  and  _145
REMARK   57  A    between atoms: _147  and  _149
REMARK   58  A    between atoms: _149  and  _150
REMARK   59  A    between atoms: _153  and  _155
REMARK   60  A    between atoms: _155  and  _156
REMARK   61  A    between atoms: _155  and  _158
REMARK   62  A    between atoms: _158  and  _159
REMARK   63  A    between atoms: _159  and  _160
REMARK   64  A    between atoms: _160  and  _161
REMARK   65  A    between atoms: _171  and  _172
REMARK   66  A    between atoms: _177  and  _179
REMARK   67  A    between atoms: _179  and  _180
REMARK   68  A    between atoms: _179  and  _182
REMARK   69  A    between atoms: _185  and  _187
REMARK   70  A    between atoms: _187  and  _188
REMARK   71  A    between atoms: _187  and  _190
REMARK   72  A    between atoms: _190  and  _191
REMARK   73  A    between atoms: _194  and  _196
REMARK   74  A    between atoms: _196  and  _197
REMARK   75  A    between atoms: _196  and  _199
REMARK   76  A    between atoms: _199  and  _200
REMARK   77  A    between atoms: _203  and  _205
REMARK   78  A    between atoms: _205  and  _206
REMARK   79  A    between atoms: _205  and  _208
REMARK   80  A    between atoms: _208  and  _209
REMARK   81  A    between atoms: _214  and  _216
REMARK   82  A    between atoms: _216  and  _217
REMARK   83  A    between atoms: _216  and  _219
REMARK   84  A    between atoms: _219  and  _220
REMARK   85  A    between atoms: _223  and  _225
REMARK   86  A    between atoms: _225  and  _226
REMARK   87  A    between atoms: _225  and  _228
REMARK   88  A    between atoms: _228  and  _229
REMARK   89  A    between atoms: _235  and  _237
REMARK   90  A    between atoms: _237  and  _238
REMARK   91  A    between atoms: _240  and  _242
REMARK   92  A    between atoms: _242  and  _243
REMARK   93  A    between atoms: _242  and  _245
REMARK   94  A    between atoms: _245  and  _246
REMARK   95  A    between atoms: _246  and  _247
REMARK   96  A    between atoms: _249  and  _251
REMARK   97  A    between atoms: _251  and  _252
REMARK   98  A    between atoms: _251  and  _254
REMARK   99  A    between atoms: _254  and  _255
REMARK  100  A    between atoms: _258  and  _260
REMARK  101  A    between atoms: _260  and  _261
REMARK  102  A    between atoms: _260  and  _263
REMARK  103  A    between atoms: _263  and  _264
REMARK  104  A    between atoms: _264  and  _265
REMARK  105  A    between atoms: _265  and  _266
REMARK  106  A    between atoms: _266  and  _267
REMARK  107  A    between atoms: _271  and  _273
REMARK  108  A    between atoms: _273  and  _274
REMARK  109  A    between atoms: _273  and  _276
REMARK  110  A    between atoms: _279  and  _281
REMARK  111  A    between atoms: _281  and  _282
REMARK  112  A    between atoms: _281  and  _284
REMARK  113  A    between atoms: _284  and  _285
REMARK  114  A    between atoms: _287  and  _289
REMARK  115  A    between atoms: _289  and  _290
REMARK  116  A    between atoms: _289  and  _292
REMARK  117  A    between atoms: _295  and  _297
REMARK  118  A    between atoms: _297  and  _298
REMARK  119  A    between atoms: _300  and  _302
REMARK  120  A    between atoms: _302  and  _303
REMARK  121  A    between atoms: _306  and  _308
REMARK  122  A    between atoms: _308  and  _309
REMARK  123  A    between atoms: _308  and  _311
REMARK  124  A    between atoms: _311  and  _312
REMARK  125  A    between atoms: _315  and  _317
REMARK  126  A    between atoms: _317  and  _318
REMARK  127  A    between atoms: _317  and  _320
REMARK  128  A    between atoms: _323  and  _325
REMARK  129  A    between atoms: _325  and  _326
REMARK  130  A    between atoms: _325  and  _328
REMARK  131  A    between atoms: _328  and  _329
REMARK  132  A    between atoms: _332  and  _334
REMARK  133  A    between atoms: _334  and  _335
REMARK  134  A    between atoms: _338  and  _340
REMARK  135  A    between atoms: _340  and  _341
REMARK  136  A    between atoms: _340  and  _343
REMARK  137  A    between atoms: _343  and  _344
REMARK  138  A    between atoms: _344  and  _345
REMARK  139  A    between atoms: _345  and  _346
REMARK  140  A    between atoms: _355  and  _357
REMARK  141  A    between atoms: _357  and  _358
REMARK  142  A    between atoms: _357  and  _360
REMARK  143  A    between atoms: _360  and  _361
REMARK  144  A    between atoms: _361  and  _362
REMARK  145  A    between atoms: _365  and  _367
REMARK  146  A    between atoms: _367  and  _368
REMARK  147  A    between atoms: _367  and  _370
REMARK  148  A    between atoms: _370  and  _371
REMARK  149  A    between atoms: _371  and  _372
REMARK  150  A    between atoms: _375  and  _377
REMARK  151  A    between atoms: _377  and  _378
REMARK  152  A    between atoms: _377  and  _380
REMARK  153  A    between atoms: _380  and  _381
REMARK  154  A    between atoms: _384  and  _386
REMARK  155  A    between atoms: _386  and  _387
REMARK  156  A    between atoms: _386  and  _389
REMARK  157  A    between atoms: _389  and  _390
REMARK  158  A    between atoms: _390  and  _391
REMARK  159  A    between atoms: _391  and  _392
REMARK  160  A    between atoms: _401  and  _403
REMARK  161  A    between atoms: _403  and  _404
REMARK  162  A    between atoms: _403  and  _406
REMARK  163  A    between atoms: _406  and  _407
REMARK  164  A    between atoms: _410  and  _412
REMARK  165  A    between atoms: _412  and  _413
REMARK  166  A    between atoms: _412  and  _415
REMARK  167  A    between atoms: _415  and  _416
REMARK  168  A    between atoms: _419  and  _421
REMARK  169  A    between atoms: _421  and  _422
REMARK  170  A    between atoms: _426  and  _427
REMARK  171  A    between atoms: _432  and  _434
REMARK  172  A    between atoms: _434  and  _435
REMARK  173  A    between atoms: _434  and  _437
REMARK  174  A    between atoms: _437  and  _438
REMARK  175  A    between atoms: _443  and  _445
REMARK  176  A    between atoms: _445  and  _446
REMARK  177  A    between atoms: _445  and  _448
REMARK  178  A    between atoms: _448  and  _449
REMARK  179  A    between atoms: _456  and  _457
REMARK  180  A    between atoms: _462  and  _464
REMARK  181  A    between atoms: _464  and  _465
REMARK  182  A    between atoms: _464  and  _467
REMARK  183  A    between atoms: _467  and  _468
REMARK  184  A    between atoms: _471  and  _473
REMARK  185  A    between atoms: _473  and  _474
REMARK  186  A    between atoms: _473  and  _476
REMARK  187  A    between atoms: _476  and  _477
REMARK  188  A    between atoms: _480  and  _482
REMARK  189  A    between atoms: _482  and  _483
REMARK  190  A    between atoms: _482  and  _485
REMARK  191  A    between atoms: _485  and  _486
REMARK  192  A    between atoms: _486  and  _487
REMARK  193  A    between atoms: _489  and  _491
REMARK  194  A    between atoms: _491  and  _492
REMARK  195  A    between atoms: _491  and  _494
REMARK  196  A    between atoms: _494  and  _495
REMARK  197  A    between atoms: _495  and  _496
REMARK  198  A    between atoms: _501  and  _503
REMARK  199  A    between atoms: _503  and  _504
REMARK  200  A    between atoms: _503  and  _506
REMARK  201  A    between atoms: _506  and  _507
REMARK  202  A    between atoms: _507  and  _508
REMARK  203  A    between atoms: _511  and  _513
REMARK  204  A    between atoms: _513  and  _514
REMARK  205  A    between atoms: _513  and  _516
REMARK  206  A    between atoms: _516  and  _517
REMARK  207  A    between atoms: _520  and  _522
REMARK  208  A    between atoms: _522  and  _523
REMARK  209  A    between atoms: _522  and  _525
REMARK  210  A    between atoms: _525  and  _526
REMARK  211  A    between atoms: _529  and  _531
REMARK  212  A    between atoms: _531  and  _532
REMARK  213  A    between atoms: _531  and  _534
REMARK  214  A    between atoms: _534  and  _535
REMARK  215  A    between atoms: _543  and  _544
REMARK  216  A    between atoms: _543  and  _546
REMARK  217  A    between atoms: _546  and  _547
REMARK  218  A    between atoms: _547  and  _548
REMARK  219  A    between atoms: _551  and  _553
REMARK  220  A    between atoms: _553  and  _554
REMARK  221  A    between atoms: _553  and  _556
REMARK  222  A    between atoms: _556  and  _557
REMARK  223  A    between atoms: _562  and  _564
REMARK  224  A    between atoms: _564  and  _565
REMARK  225  A    between atoms: _564  and  _567
REMARK  226  A    between atoms: _567  and  _568
REMARK  227  A    between atoms: _568  and  _569
REMARK  228  A    between atoms: _569  and  _570
REMARK  229  A    between atoms: _579  and  _581
REMARK  230  A    between atoms: _581  and  _582
REMARK  231  A    between atoms: _581  and  _584
REMARK  232  A    between atoms: _584  and  _585
REMARK  233  A    between atoms: _590  and  _591
REMARK  234  A    between atoms: _590  and  _593
REMARK  235  A    between atoms: _593  and  _594
REMARK  236  A    between atoms: _597  and  _599
REMARK  237  A    between atoms: _599  and  _600
REMARK  238  A    between atoms: _599  and  _602
REMARK  239  A    between atoms: _602  and  _603
REMARK  240  A    between atoms: _603  and  _604
REMARK  241  A    between atoms: _604  and  _605
REMARK  242  A    between atoms: _614  and  _616
REMARK  243  A    between atoms: _616  and  _617
REMARK                            x       y       z     vdW  Elec       q    Type
REMARK                         _______ _______ _______ _____ _____    ______ ____
ROOT
ATOM      1  CB  PHE A   1      93.309   8.406 115.975  0.00  0.00    +0.051 C 
ENDROOT
BRANCH   1   2
ATOM      2  CG  PHE A   1      92.053   8.108 115.218  0.00  0.00    -0.020 A 
ATOM      3  CD2 PHE A   1      91.397   6.894 115.391  0.00  0.00    -0.004 A 
ATOM      4  CE2 PHE A   1      90.241   6.600 114.662  0.00  0.00    -0.000 A 
ATOM      5  CZ  PHE A   1      89.737   7.536 113.747  0.00  0.00    -0.000 A 
ATOM      6  CE1 PHE A   1      90.387   8.747 113.574  0.00  0.00    -0.000 A 
ATOM      7  CD1 PHE A   1      91.542   9.031 114.309  0.00  0.00    -0.004 A 
ENDBRANCH   1   2
BRANCH   1   8
ATOM      8  CA  PHE A   1      94.568   8.277 115.138  0.00  0.00    +0.137 C 
BRANCH   8   9
ATOM      9  N   PHE A   1      94.930   6.885 114.854  0.00  0.00    -0.239 NA
ATOM     10  H   PHE A   1      94.495   6.122 115.411  0.00  0.00    +0.142 HD
ENDBRANCH   8   9
BRANCH   8  11
ATOM     11  C   PHE A   1      95.749   9.030 115.738  0.00  0.00    +0.224 C 
ATOM     12  O   PHE A   1      95.972  10.202 115.451  0.00  0.00    -0.287 OA
ENDBRANCH   8  11
ENDBRANCH   1   8
TORSDOF 4
REMARK  Name = ../refined-set-2016/3upk/3upk_pocket.pdb
REMARK  243 active torsions:
REMARK  status: ('A' for Active; 'I' for Inactive)
REMARK    1  A    between atoms: _1  and  _3
REMARK    2  A    between atoms: _3  and  _4
REMARK    3  A    between atoms: _3  and  _6
REMARK    4  A    between atoms: _6  and  _7
REMARK    5  A    between atoms: _7  and  _8
REMARK    6  A    between atoms: _8  and  _9
REMARK    7  A    between atoms: _9  and  _10
REMARK    8  A    between atoms: _16  and  _17
REMARK    9  A    between atoms: _16  and  _19
REMARK   10  A    between atoms: _19  and  _20
REMARK   11  A    between atoms: _25  and  _27
REMARK   12  A    between atoms: _27  and  _28
REMARK   13  A    between atoms: _31  and  _33
REMARK   14  A    between atoms: _33  and  _34
REMARK   15  A    between atoms: _33  and  _36
REMARK   16  A    between atoms: _36  and  _37
REMARK   17  A    between atoms: _41  and  _42
REMARK   18  A    between atoms: _47  and  _49
REMARK   19  A    between atoms: _49  and  _50
REMARK   20  A    between atoms: _49  and  _52
REMARK   21  A    between atoms: _52  and  _53
REMARK   22  A    between atoms: _59  and  _61
REMARK   23  A    between atoms: _61  and  _62
REMARK   24  A    between atoms: _61  and  _64
REMARK   25  A    between atoms: _64  and  _65
REMARK   26  A    between atoms: _68  and  _70
REMARK   27  A    between atoms: _70  and  _71
REMARK   28  A    between atoms: _70  and  _73
REMARK   29  A    between atoms: _73  and  _74
REMARK   30  A    between atoms: _74  and  _75
REMARK   31  A    between atoms: _77  and  _79
REMARK   32  A    between atoms: _79  and  _80
REMARK   33  A    between atoms: _79  and  _82
REMARK   34  A    between atoms: _82  and  _83
REMARK   35  A    between atoms: _83  and  _84
REMARK   36  A    between atoms: _84  and  _85
REMARK   37  A    between atoms: _94  and  _96
REMARK   38  A    between atoms: _96  and  _97
REMARK   39  A    between atoms: _100  and  _102
REMARK   40  A    between atoms: _102  and  _103
REMARK   41  A    between atoms: _102  and  _105
REMARK   42  A    between atoms: _105  and  _106
REMARK   43  A    between atoms: _108  and  _110
REMARK   44  A    between atoms: _110  and  _111
REMARK   45  A    between atoms: _110  and  _113
REMARK   46  A    between atoms: _113  and  _114
REMARK   47  A    between atoms: _117  and  _119
REMARK   48  A    between atoms: _119  and  _120
REMARK   49  A    between atoms: _119  and  _122
REMARK   50  A    between atoms: _122  and  _123
REMARK   51  A    between atoms: _133  and  _135
REMARK   52  A    between atoms: _135  and  _136
REMARK   53  A    between atoms: _135  and  _138
REMARK   54  A    between atoms: _138  and  _139
REMARK   55  A    between atoms: _142  and  _144
REMARK   56  A    between atoms: _144  and  _145
REMARK   57  A    between atoms: _147  and  _149
REMARK   58  A    between atoms: _149  and  _150
REMARK   59  A    between atoms: _153  and  _155
REMARK   60  A    between atoms: _155  and  _156
REMARK   61  A    between atoms: _155  and  _158
REMARK   62  A    between atoms: _158  and  _159
REMARK   63  A    between atoms: _159  and  _160
REMARK   64  A    between atoms: _160  and  _161
REMARK   65  A    between atoms: _171  and  _172
REMARK   66  A    between atoms: _177  and  _179
REMARK   67  A    between atoms: _179  and  _180
REMARK   68  A    between atoms: _179  and  _182
REMARK   69  A    between atoms: _185  and  _187
REMARK   70  A    between atoms: _187  and  _188
REMARK   71  A    between atoms: _187  and  _190
REMARK   72  A    between atoms: _190  and  _191
REMARK   73  A    between atoms: _194  and  _196
REMARK   74  A    between atoms: _196  and  _197
REMARK   75  A    between atoms: _196  and  _199
REMARK   76  A    between atoms: _199  and  _200
REMARK   77  A    between atoms: _203  and  _205
REMARK   78  A    between atoms: _205  and  _206
REMARK   79  A    between atoms: _205  and  _208
REMARK   80  A    between atoms: _208  and  _209
REMARK   81  A    between atoms: _214  and  _216
REMARK   82  A    between atoms: _216  and  _217
REMARK   83  A    between atoms: _216  and  _219
REMARK   84  A    between atoms: _219  and  _220
REMARK   85  A    between atoms: _223  and  _225
REMARK   86  A    between atoms: _225  and  _226
REMARK   87  A    between atoms: _225  and  _228
REMARK   88  A    between atoms: _228  and  _229
REMARK   89  A    between atoms: _235  and  _237
REMARK   90  A    between atoms: _237  and  _238
REMARK   91  A    between atoms: _240  and  _242
REMARK   92  A    between atoms: _242  and  _243
REMARK   93  A    between atoms: _242  and  _245
REMARK   94  A    between atoms: _245  and  _246
REMARK   95  A    between atoms: _246  and  _247
REMARK   96  A    between atoms: _249  and  _251
REMARK   97  A    between atoms: _251  and  _252
REMARK   98  A    between atoms: _251  and  _254
REMARK   99  A    between atoms: _254  and  _255
REMARK  100  A    between atoms: _258  and  _260
REMARK  101  A    between atoms: _260  and  _261
REMARK  102  A    between atoms: _260  and  _263
REMARK  103  A    between atoms: _263  and  _264
REMARK  104  A    between atoms: _264  and  _265
REMARK  105  A    between atoms: _265  and  _266
REMARK  106  A    between atoms: _266  and  _267
REMARK  107  A    between atoms: _271  and  _273
REMARK  108  A    between atoms: _273  and  _274
REMARK  109  A    between atoms: _273  and  _276
REMARK  110  A    between atoms: _279  and  _281
REMARK  111  A    between atoms: _281  and  _282
REMARK  112  A    between atoms: _281  and  _284
REMARK  113  A    between atoms: _284  and  _285
REMARK  114  A    between atoms: _287  and  _289
REMARK  115  A    between atoms: _289  and  _290
REMARK  116  A    between atoms: _289  and  _292
REMARK  117  A    between atoms: _295  and  _297
REMARK  118  A    between atoms: _297  and  _298
REMARK  119  A    between atoms: _300  and  _302
REMARK  120  A    between atoms: _302  and  _303
REMARK  121  A    between atoms: _306  and  _308
REMARK  122  A    between atoms: _308  and  _309
REMARK  123  A    between atoms: _308  and  _311
REMARK  124  A    between atoms: _311  and  _312
REMARK  125  A    between atoms: _315  and  _317
REMARK  126  A    between atoms: _317  and  _318
REMARK  127  A    between atoms: _317  and  _320
REMARK  128  A    between atoms: _323  and  _325
REMARK  129  A    between atoms: _325  and  _326
REMARK  130  A    between atoms: _325  and  _328
REMARK  131  A    between atoms: _328  and  _329
REMARK  132  A    between atoms: _332  and  _334
REMARK  133  A    between atoms: _334  and  _335
REMARK  134  A    between atoms: _338  and  _340
REMARK  135  A    between atoms: _340  and  _341
REMARK  136  A    between atoms: _340  and  _343
REMARK  137  A    between atoms: _343  and  _344
REMARK  138  A    between atoms: _344  and  _345
REMARK  139  A    between atoms: _345  and  _346
REMARK  140  A    between atoms: _355  and  _357
REMARK  141  A    between atoms: _357  and  _358
REMARK  142  A    between atoms: _357  and  _360
REMARK  143  A    between atoms: _360  and  _361
REMARK  144  A    between atoms: _361  and  _362
REMARK  145  A    between atoms: _365  and  _367
REMARK  146  A    between atoms: _367  and  _368
REMARK  147  A    between atoms: _367  and  _370
REMARK  148  A    between atoms: _370  and  _371
REMARK  149  A    between atoms: _371  and  _372
REMARK  150  A    between atoms: _375  and  _377
REMARK  151  A    between atoms: _377  and  _378
REMARK  152  A    between atoms: _377  and  _380
REMARK  153  A    between atoms: _380  and  _381
REMARK  154  A    between atoms: _384  and  _386
REMARK  155  A    between atoms: _386  and  _387
REMARK  156  A    between atoms: _386  and  _389
REMARK  157  A    between atoms: _389  and  _390
REMARK  158  A    between atoms: _390  and  _391
REMARK  159  A    between atoms: _391  and  _392
REMARK  160  A    between atoms: _401  and  _403
REMARK  161  A    between atoms: _403  and  _404
REMARK  162  A    between atoms: _403  and  _406
REMARK  163  A    between atoms: _406  and  _407
REMARK  164  A    between atoms: _410  and  _412
REMARK  165  A    between atoms: _412  and  _413
REMARK  166  A    between atoms: _412  and  _415
REMARK  167  A    between atoms: _415  and  _416
REMARK  168  A    between atoms: _419  and  _421
REMARK  169  A    between atoms: _421  and  _422
REMARK  170  A    between atoms: _426  and  _427
REMARK  171  A    between atoms: _432  and  _434
REMARK  172  A    between atoms: _434  and  _435
REMARK  173  A    between atoms: _434  and  _437
REMARK  174  A    between atoms: _437  and  _438
REMARK  175  A    between atoms: _443  and  _445
REMARK  176  A    between atoms: _445  and  _446
REMARK  177  A    between atoms: _445  and  _448
REMARK  178  A    between atoms: _448  and  _449
REMARK  179  A    between atoms: _456  and  _457
REMARK  180  A    between atoms: _462  and  _464
REMARK  181  A    between atoms: _464  and  _465
REMARK  182  A    between atoms: _464  and  _467
REMARK  183  A    between atoms: _467  and  _468
REMARK  184  A    between atoms: _471  and  _473
REMARK  185  A    between atoms: _473  and  _474
REMARK  186  A    between atoms: _473  and  _476
REMARK  187  A    between atoms: _476  and  _477
REMARK  188  A    between atoms: _480  and  _482
REMARK  189  A    between atoms: _482  and  _483
REMARK  190  A    between atoms: _482  and  _485
REMARK  191  A    between atoms: _485  and  _486
REMARK  192  A    between atoms: _486  and  _487
REMARK  193  A    between atoms: _489  and  _491
REMARK  194  A    between atoms: _491  and  _492
REMARK  195  A    between atoms: _491  and  _494
REMARK  196  A    between atoms: _494  and  _495
REMARK  197  A    between atoms: _495  and  _496
REMARK  198  A    between atoms: _501  and  _503
REMARK  199  A    between atoms: _503  and  _504
REMARK  200  A    between atoms: _503  and  _506
REMARK  201  A    between atoms: _506  and  _507
REMARK  202  A    between atoms: _507  and  _508
REMARK  203  A    between atoms: _511  and  _513
REMARK  204  A    between atoms: _513  and  _514
REMARK  205  A    between atoms: _513  and  _516
REMARK  206  A    between atoms: _516  and  _517
REMARK  207  A    between atoms: _520  and  _522
REMARK  208  A    between atoms: _522  and  _523
REMARK  209  A    between atoms: _522  and  _525
REMARK  210  A    between atoms: _525  and  _526
REMARK  211  A    between atoms: _529  and  _531
REMARK  212  A    between atoms: _531  and  _532
REMARK  213  A    between atoms: _531  and  _534
REMARK  214  A    between atoms: _534  and  _535
REMARK  215  A    between atoms: _543  and  _544
REMARK  216  A    between atoms: _543  and  _546
REMARK  217  A    between atoms: _546  and  _547
REMARK  218  A    between atoms: _547  and  _548
REMARK  219  A    between atoms: _551  and  _553
REMARK  220  A    between atoms: _553  and  _554
REMARK  221  A    between atoms: _553  and  _556
REMARK  222  A    between atoms: _556  and  _557
REMARK  223  A    between atoms: _562  and  _564
REMARK  224  A    between atoms: _564  and  _565
REMARK  225  A    between atoms: _564  and  _567
REMARK  226  A    between atoms: _567  and  _568
REMARK  227  A    between atoms: _568  and  _569
REMARK  228  A    between atoms: _569  and  _570
REMARK  229  A    between atoms: _579  and  _581
REMARK  230  A    between atoms: _581  and  _582
REMARK  231  A    between atoms: _581  and  _584
REMARK  232  A    between atoms: _584  and  _585
REMARK  233  A    between atoms: _590  and  _591
REMARK  234  A    between atoms: _590  and  _593
REMARK  235  A    between atoms: _593  and  _594
REMARK  236  A    between atoms: _597  and  _599
REMARK  237  A    between atoms: _599  and  _600
REMARK  238  A    between atoms: _599  and  _602
REMARK  239  A    between atoms: _602  and  _603
REMARK  240  A    between atoms: _603  and  _604
REMARK  241  A    between atoms: _604  and  _605
REMARK  242  A    between atoms: _614  and  _616
REMARK  243  A    between atoms: _616  and  _617
REMARK                            x       y       z     vdW  Elec       q    Type
REMARK                         _______ _______ _______ _____ _____    ______ ____
ROOT
ATOM      1  CA  ASP A   1      86.654  -0.123 111.076  0.00  0.00    +0.144 C 
ENDROOT
BRANCH   1   2
ATOM      2  N   ASP A   1      86.307  -1.277 110.261  0.00  0.00    -0.239 NA
ATOM      3  H   ASP A   1      86.239  -2.218 110.700  0.00  0.00    +0.142 HD
ENDBRANCH   1   2
BRANCH   1   4
ATOM      4  C   ASP A   1      87.982   0.468 110.651  0.00  0.00    +0.225 C 
ATOM      5  O   ASP A   1      88.174   1.682 110.715  0.00  0.00    -0.287 OA
ENDBRANCH   1   4
BRANCH   1   6
ATOM      6  CB  ASP A   1      86.547  -0.366 112.578  0.00  0.00    +0.139 C 
BRANCH   6   7
ATOM      7  CG  ASP A   1      85.117  -0.223 113.106  0.00  0.00    +0.367 C 
ATOM      8  OD2 ASP A   1      84.921  -0.466 114.309  0.00  0.00    -0.246 OA
ATOM      9  OD1 ASP A   1      84.209   0.142 112.341  0.00  0.00    -0.246 OA
ENDBRANCH   6   7
ENDBRANCH   1   6
TORSDOF 4
REMARK  Name = ../refined-set-2016/3upk/3upk_pocket.pdb
REMARK  243 active torsions:
REMARK  status: ('A' for Active; 'I' for Inactive)
REMARK    1  A    between atoms: _1  and  _3
REMARK    2  A    between atoms: _3  and  _4
REMARK    3  A    between atoms: _3  and  _6
REMARK    4  A    between atoms: _6  and  _7
REMARK    5  A    between atoms: _7  and  _8
REMARK    6  A    between atoms: _8  and  _9
REMARK    7  A    between atoms: _9  and  _10
REMARK    8  A    between atoms: _16  and  _17
REMARK    9  A    between atoms: _16  and  _19
REMARK   10  A    between atoms: _19  and  _20
REMARK   11  A    between atoms: _25  and  _27
REMARK   12  A    between atoms: _27  and  _28
REMARK   13  A    between atoms: _31  and  _33
REMARK   14  A    between atoms: _33  and  _34
REMARK   15  A    between atoms: _33  and  _36
REMARK   16  A    between atoms: _36  and  _37
REMARK   17  A    between atoms: _41  and  _42
REMARK   18  A    between atoms: _47  and  _49
REMARK   19  A    between atoms: _49  and  _50
REMARK   20  A    between atoms: _49  and  _52
REMARK   21  A    between atoms: _52  and  _53
REMARK   22  A    between atoms: _59  and  _61
REMARK   23  A    between atoms: _61  and  _62
REMARK   24  A    between atoms: _61  and  _64
REMARK   25  A    between atoms: _64  and  _65
REMARK   26  A    between atoms: _68  and  _70
REMARK   27  A    between atoms: _70  and  _71
REMARK   28  A    between atoms: _70  and  _73
REMARK   29  A    between atoms: _73  and  _74
REMARK   30  A    between atoms: _74  and  _75
REMARK   31  A    between atoms: _77  and  _79
REMARK   32  A    between atoms: _79  and  _80
REMARK   33  A    between atoms: _79  and  _82
REMARK   34  A    between atoms: _82  and  _83
REMARK   35  A    between atoms: _83  and  _84
REMARK   36  A    between atoms: _84  and  _85
REMARK   37  A    between atoms: _94  and  _96
REMARK   38  A    between atoms: _96  and  _97
REMARK   39  A    between atoms: _100  and  _102
REMARK   40  A    between atoms: _102  and  _103
REMARK   41  A    between atoms: _102  and  _105
REMARK   42  A    between atoms: _105  and  _106
REMARK   43  A    between atoms: _108  and  _110
REMARK   44  A    between atoms: _110  and  _111
REMARK   45  A    between atoms: _110  and  _113
REMARK   46  A    between atoms: _113  and  _114
REMARK   47  A    between atoms: _117  and  _119
REMARK   48  A    between atoms: _119  and  _120
REMARK   49  A    between atoms: _119  and  _122
REMARK   50  A    between atoms: _122  and  _123
REMARK   51  A    between atoms: _133  and  _135
REMARK   52  A    between atoms: _135  and  _136
REMARK   53  A    between atoms: _135  and  _138
REMARK   54  A    between atoms: _138  and  _139
REMARK   55  A    between atoms: _142  and  _144
REMARK   56  A    between atoms: _144  and  _145
REMARK   57  A    between atoms: _147  and  _149
REMARK   58  A    between atoms: _149  and  _150
REMARK   59  A    between atoms: _153  and  _155
REMARK   60  A    between atoms: _155  and  _156
REMARK   61  A    between atoms: _155  and  _158
REMARK   62  A    between atoms: _158  and  _159
REMARK   63  A    between atoms: _159  and  _160
REMARK   64  A    between atoms: _160  and  _161
REMARK   65  A    between atoms: _171  and  _172
REMARK   66  A    between atoms: _177  and  _179
REMARK   67  A    between atoms: _179  and  _180
REMARK   68  A    between atoms: _179  and  _182
REMARK   69  A    between atoms: _185  and  _187
REMARK   70  A    between atoms: _187  and  _188
REMARK   71  A    between atoms: _187  and  _190
REMARK   72  A    between atoms: _190  and  _191
REMARK   73  A    between atoms: _194  and  _196
REMARK   74  A    between atoms: _196  and  _197
REMARK   75  A    between atoms: _196  and  _199
REMARK   76  A    between atoms: _199  and  _200
REMARK   77  A    between atoms: _203  and  _205
REMARK   78  A    between atoms: _205  and  _206
REMARK   79  A    between atoms: _205  and  _208
REMARK   80  A    between atoms: _208  and  _209
REMARK   81  A    between atoms: _214  and  _216
REMARK   82  A    between atoms: _216  and  _217
REMARK   83  A    between atoms: _216  and  _219
REMARK   84  A    between atoms: _219  and  _220
REMARK   85  A    between atoms: _223  and  _225
REMARK   86  A    between atoms: _225  and  _226
REMARK   87  A    between atoms: _225  and  _228
REMARK   88  A    between atoms: _228  and  _229
REMARK   89  A    between atoms: _235  and  _237
REMARK   90  A    between atoms: _237  and  _238
REMARK   91  A    between atoms: _240  and  _242
REMARK   92  A    between atoms: _242  and  _243
REMARK   93  A    between atoms: _242  and  _245
REMARK   94  A    between atoms: _245  and  _246
REMARK   95  A    between atoms: _246  and  _247
REMARK   96  A    between atoms: _249  and  _251
REMARK   97  A    between atoms: _251  and  _252
REMARK   98  A    between atoms: _251  and  _254
REMARK   99  A    between atoms: _254  and  _255
REMARK  100  A    between atoms: _258  and  _260
REMARK  101  A    between atoms: _260  and  _261
REMARK  102  A    between atoms: _260  and  _263
REMARK  103  A    between atoms: _263  and  _264
REMARK  104  A    between atoms: _264  and  _265
REMARK  105  A    between atoms: _265  and  _266
REMARK  106  A    between atoms: _266  and  _267
REMARK  107  A    between atoms: _271  and  _273
REMARK  108  A    between atoms: _273  and  _274
REMARK  109  A    between atoms: _273  and  _276
REMARK  110  A    between atoms: _279  and  _281
REMARK  111  A    between atoms: _281  and  _282
REMARK  112  A    between atoms: _281  and  _284
REMARK  113  A    between atoms: _284  and  _285
REMARK  114  A    between atoms: _287  and  _289
REMARK  115  A    between atoms: _289  and  _290
REMARK  116  A    between atoms: _289  and  _292
REMARK  117  A    between atoms: _295  and  _297
REMARK  118  A    between atoms: _297  and  _298
REMARK  119  A    between atoms: _300  and  _302
REMARK  120  A    between atoms: _302  and  _303
REMARK  121  A    between atoms: _306  and  _308
REMARK  122  A    between atoms: _308  and  _309
REMARK  123  A    between atoms: _308  and  _311
REMARK  124  A    between atoms: _311  and  _312
REMARK  125  A    between atoms: _315  and  _317
REMARK  126  A    between atoms: _317  and  _318
REMARK  127  A    between atoms: _317  and  _320
REMARK  128  A    between atoms: _323  and  _325
REMARK  129  A    between atoms: _325  and  _326
REMARK  130  A    between atoms: _325  and  _328
REMARK  131  A    between atoms: _328  and  _329
REMARK  132  A    between atoms: _332  and  _334
REMARK  133  A    between atoms: _334  and  _335
REMARK  134  A    between atoms: _338  and  _340
REMARK  135  A    between atoms: _340  and  _341
REMARK  136  A    between atoms: _340  and  _343
REMARK  137  A    between atoms: _343  and  _344
REMARK  138  A    between atoms: _344  and  _345
REMARK  139  A    between atoms: _345  and  _346
REMARK  140  A    between atoms: _355  and  _357
REMARK  141  A    between atoms: _357  and  _358
REMARK  142  A    between atoms: _357  and  _360
REMARK  143  A    between atoms: _360  and  _361
REMARK  144  A    between atoms: _361  and  _362
REMARK  145  A    between atoms: _365  and  _367
REMARK  146  A    between atoms: _367  and  _368
REMARK  147  A    between atoms: _367  and  _370
REMARK  148  A    between atoms: _370  and  _371
REMARK  149  A    between atoms: _371  and  _372
REMARK  150  A    between atoms: _375  and  _377
REMARK  151  A    between atoms: _377  and  _378
REMARK  152  A    between atoms: _377  and  _380
REMARK  153  A    between atoms: _380  and  _381
REMARK  154  A    between atoms: _384  and  _386
REMARK  155  A    between atoms: _386  and  _387
REMARK  156  A    between atoms: _386  and  _389
REMARK  157  A    between atoms: _389  and  _390
REMARK  158  A    between atoms: _390  and  _391
REMARK  159  A    between atoms: _391  and  _392
REMARK  160  A    between atoms: _401  and  _403
REMARK  161  A    between atoms: _403  and  _404
REMARK  162  A    between atoms: _403  and  _406
REMARK  163  A    between atoms: _406  and  _407
REMARK  164  A    between atoms: _410  and  _412
REMARK  165  A    between atoms: _412  and  _413
REMARK  166  A    between atoms: _412  and  _415
REMARK  167  A    between atoms: _415  and  _416
REMARK  168  A    between atoms: _419  and  _421
REMARK  169  A    between atoms: _421  and  _422
REMARK  170  A    between atoms: _426  and  _427
REMARK  171  A    between atoms: _432  and  _434
REMARK  172  A    between atoms: _434  and  _435
REMARK  173  A    between atoms: _434  and  _437
REMARK  174  A    between atoms: _437  and  _438
REMARK  175  A    between atoms: _443  and  _445
REMARK  176  A    between atoms: _445  and  _446
REMARK  177  A    between atoms: _445  and  _448
REMARK  178  A    between atoms: _448  and  _449
REMARK  179  A    between atoms: _456  and  _457
REMARK  180  A    between atoms: _462  and  _464
REMARK  181  A    between atoms: _464  and  _465
REMARK  182  A    between atoms: _464  and  _467
REMARK  183  A    between atoms: _467  and  _468
REMARK  184  A    between atoms: _471  and  _473
REMARK  185  A    between atoms: _473  and  _474
REMARK  186  A    between atoms: _473  and  _476
REMARK  187  A    between atoms: _476  and  _477
REMARK  188  A    between atoms: _480  and  _482
REMARK  189  A    between atoms: _482  and  _483
REMARK  190  A    between atoms: _482  and  _485
REMARK  191  A    between atoms: _485  and  _486
REMARK  192  A    between atoms: _486  and  _487
REMARK  193  A    between atoms: _489  and  _491
REMARK  194  A    between atoms: _491  and  _492
REMARK  195  A    between atoms: _491  and  _494
REMARK  196  A    between atoms: _494  and  _495
REMARK  197  A    between atoms: _495  and  _496
REMARK  198  A    between atoms: _501  and  _503
REMARK  199  A    between atoms: _503  and  _504
REMARK  200  A    between atoms: _503  and  _506
REMARK  201  A    between atoms: _506  and  _507
REMARK  202  A    between atoms: _507  and  _508
REMARK  203  A    between atoms: _511  and  _513
REMARK  204  A    between atoms: _513  and  _514
REMARK  205  A    between atoms: _513  and  _516
REMARK  206  A    between atoms: _516  and  _517
REMARK  207  A    between atoms: _520  and  _522
REMARK  208  A    between atoms: _522  and  _523
REMARK  209  A    between atoms: _522  and  _525
REMARK  210  A    between atoms: _525  and  _526
REMARK  211  A    between atoms: _529  and  _531
REMARK  212  A    between atoms: _531  and  _532
REMARK  213  A    between atoms: _531  and  _534
REMARK  214  A    between atoms: _534  and  _535
REMARK  215  A    between atoms: _543  and  _544
REMARK  216  A    between atoms: _543  and  _546
REMARK  217  A    between atoms: _546  and  _547
REMARK  218  A    between atoms: _547  and  _548
REMARK  219  A    between atoms: _551  and  _553
REMARK  220  A    between atoms: _553  and  _554
REMARK  221  A    between atoms: _553  and  _556
REMARK  222  A    between atoms: _556  and  _557
REMARK  223  A    between atoms: _562  and  _564
REMARK  224  A    between atoms: _564  and  _565
REMARK  225  A    between atoms: _564  and  _567
REMARK  226  A    between atoms: _567  and  _568
REMARK  227  A    between atoms: _568  and  _569
REMARK  228  A    between atoms: _569  and  _570
REMARK  229  A    between atoms: _579  and  _581
REMARK  230  A    between atoms: _581  and  _582
REMARK  231  A    between atoms: _581  and  _584
REMARK  232  A    between atoms: _584  and  _585
REMARK  233  A    between atoms: _590  and  _591
REMARK  234  A    between atoms: _590  and  _593
REMARK  235  A    between atoms: _593  and  _594
REMARK  236  A    between atoms: _597  and  _599
REMARK  237  A    between atoms: _599  and  _600
REMARK  238  A    between atoms: _599  and  _602
REMARK  239  A    between atoms: _602  and  _603
REMARK  240  A    between atoms: _603  and  _604
REMARK  241  A    between atoms: _604  and  _605
REMARK  242  A    between atoms: _614  and  _616
REMARK  243  A    between atoms: _616  and  _617
REMARK                            x       y       z     vdW  Elec       q    Type
REMARK                         _______ _______ _______ _____ _____    ______ ____
ROOT
ATOM      1  C   ALA A   3      86.447   7.118 116.627  0.00  0.00    +0.241 C 
ATOM      2  O   ALA A   3      87.576   7.544 116.877  0.00  0.00    -0.273 OA
ATOM      3  N   SER A   4      85.666   7.656 115.690  0.00  0.00    -0.295 N 
ATOM      4  H   SER A   4      84.736   7.235 115.490  0.00  0.00    +0.150 HD
ENDROOT
BRANCH   1   5
ATOM      5  CA  ALA A   3      85.900   5.913 117.392  0.00  0.00    +0.149 C 
ATOM      6  CB  ALA A   3      86.702   4.645 117.010  0.00  0.00    +0.031 C 
BRANCH   5   9
ATOM      7  C   ARG A   2      83.581   6.686 117.364  0.00  0.00    +0.241 C 
ATOM      8  O   ARG A   2      83.902   7.800 117.775  0.00  0.00    -0.273 OA
ATOM      9  N   ALA A   3      84.464   5.713 117.158  0.00  0.00    -0.297 N 
ATOM     10  H   ALA A   3      84.129   4.787 116.823  0.00  0.00    +0.150 HD
BRANCH   7  11
ATOM     11  CA  ARG A   2      82.108   6.353 117.080  0.00  0.00    +0.149 C 
BRANCH  11  13
ATOM     12  C   MET A   1      82.486   5.738 114.746  0.00  0.00    +0.238 C 
ATOM     13  N   ARG A   2      81.951   5.462 115.929  0.00  0.00    -0.297 N 
ATOM     14  H   ARG A   2      81.403   4.585 116.042  0.00  0.00    +0.150 HD
ATOM     15  O   MET A   1      83.138   6.766 114.522  0.00  0.00    -0.274 OA
BRANCH  12  16
ATOM     16  CA  MET A   1      82.254   4.710 113.636  0.00  0.00    +0.146 C 
BRANCH  16  17
ATOM     17  N   MET A   1      81.191   5.052 112.709  0.00  0.00    -0.238 NA
ATOM     18  H   MET A   1      80.895   6.045 112.619  0.00  0.00    +0.142 HD
ENDBRANCH  16  17
BRANCH  16  19
ATOM     19  CB  MET A   1      83.540   4.323 112.910  0.00  0.00    +0.038 C 
BRANCH  19  20
ATOM     20  CG  MET A   1      84.613   3.741 113.823  0.00  0.00    +0.060 C 
BRANCH  20  21
ATOM     21  SD  MET A   1      86.176   3.559 112.961  0.00  0.00    -0.139 S 
ATOM     22  CE  MET A   1      86.627   5.302 112.803  0.00  0.00    +0.069 C 
ENDBRANCH  20  21
ENDBRANCH  19  20
ENDBRANCH  16  19
ENDBRANCH  12  16
ENDBRANCH  11  13
BRANCH  11  23
ATOM     23  CB  ARG A   2      81.375   5.860 118.338  0.00  0.00    +0.033 C 
BRANCH  23  24
ATOM     24  CG  ARG A   2      79.930   5.435 118.134  0.00  0.00    +0.045 C 
BRANCH  24  25
ATOM     25  CD  ARG A   2      79.354   4.939 119.443  0.00  0.00    +0.174 C 
BRANCH  25  26
ATOM     26  NE  ARG A   2      79.129   6.039 120.372  0.00  0.00    -0.265 N 
ATOM     27  HE  ARG A   2      79.794   6.147 121.165  0.00  0.00    +0.259 HD
ATOM     28  CZ  ARG A   2      78.133   6.913 120.276  0.00  0.00    +0.342 C 
ATOM     29  NH2 ARG A   2      78.023   7.871 121.182  0.00  0.00    -0.292 N 
ATOM     30 HH21 ARG A   2      78.712   7.934 121.959  0.00  0.00    +0.255 HD
ATOM     31 HH22 ARG A   2      77.248   8.561 121.118  0.00  0.00    +0.255 HD
ATOM     32  NH1 ARG A   2      77.246   6.827 119.282  0.00  0.00    -0.292 N 
ATOM     33 HH11 ARG A   2      76.470   7.516 119.216  0.00  0.00    +0.255 HD
ATOM     34 HH12 ARG A   2      77.331   6.071 118.573  0.00  0.00    +0.255 HD
ENDBRANCH  25  26
ENDBRANCH  24  25
ENDBRANCH  23  24
ENDBRANCH  11  23
ENDBRANCH   7  11
ENDBRANCH   5   9
ENDBRANCH   1   5
BRANCH   3  35
ATOM     35  CA  SER A   4      86.103   8.831 114.942  0.00  0.00    +0.178 C 
BRANCH  35  36
ATOM     36  C   SER A   4      86.459   9.964 115.893  0.00  0.00    +0.243 C 
ATOM     37  N   ILE A   5      85.826   9.962 117.064  0.00  0.00    -0.297 N 
ATOM     38  H   ILE A   5      85.147   9.205 117.282  0.00  0.00    +0.150 HD
ATOM     39  O   SER A   4      87.298  10.818 115.583  0.00  0.00    -0.273 OA
BRANCH  37  40
ATOM     40  CA  ILE A   5      86.076  11.013 118.044  0.00  0.00    +0.149 C 
BRANCH  40  41
ATOM     41  C   ILE A   5      87.570  11.156 118.350  0.00  0.00    +0.241 C 
ATOM     42  O   ILE A   5      88.028  12.240 118.733  0.00  0.00    -0.273 OA
ATOM     43  N   TRP A   6      88.326  10.066 118.183  0.00  0.00    -0.298 N 
ATOM     44  H   TRP A   6      87.876   9.180 117.875  0.00  0.00    +0.150 HD
BRANCH  43  45
ATOM     45  CA  TRP A   6      89.773  10.087 118.423  0.00  0.00    +0.141 C 
BRANCH  45  46
ATOM     46  C   TRP A   6      90.605  11.025 117.547  0.00  0.00    +0.227 C 
ATOM     47  O   TRP A   6      91.787  11.236 117.817  0.00  0.00    -0.286 OA
ENDBRANCH  45  46
BRANCH  45  48
ATOM     48  CB  TRP A   6      90.415   8.711 118.528  0.00  0.00    +0.056 C 
BRANCH  48  49
ATOM     49  CG  TRP A   6      90.114   7.984 119.784  0.00  0.00    -0.002 A 
ATOM     50  CD1 TRP A   6      90.023   8.513 121.036  0.00  0.00    +0.068 A 
ATOM     51  NE1 TRP A   6      89.840   7.508 121.962  0.00  0.00    -0.352 N 
ATOM     52  HE1 TRP A   6      89.741   7.641 122.989  0.00  0.00    +0.166 HD
ATOM     53  CE2 TRP A   6      89.810   6.305 121.305  0.00  0.00    +0.056 A 
ATOM     54  CZ2 TRP A   6      89.650   5.008 121.806  0.00  0.00    +0.017 A 
ATOM     55  CH2 TRP A   6      89.646   3.967 120.900  0.00  0.00    +0.001 A 
ATOM     56  CZ3 TRP A   6      89.800   4.197 119.518  0.00  0.00    +0.000 A 
ATOM     57  CE3 TRP A   6      89.968   5.496 119.021  0.00  0.00    +0.001 A 
ATOM     58  CD2 TRP A   6      89.973   6.570 119.927  0.00  0.00    +0.013 A 
ENDBRANCH  48  49
ENDBRANCH  45  48
ENDBRANCH  43  45
ENDBRANCH  40  41
BRANCH  40  59
ATOM     59  CB  ILE A   5      85.275  10.768 119.361  0.00  0.00    +0.027 C 
ATOM     60  CG2 ILE A   5      85.848   9.563 120.132  0.00  0.00    +0.002 C 
BRANCH  59  61
ATOM     61  CG1 ILE A   5      85.299  12.034 120.232  0.00  0.00    +0.002 C 
ATOM     62  CD1 ILE A   5      84.555  13.234 119.615  0.00  0.00    +0.000 C 
ENDBRANCH  59  61
ENDBRANCH  40  59
ENDBRANCH  37  40
ENDBRANCH  35  36
BRANCH  35  63
ATOM     63  CB  SER A   4      85.125   9.277 113.854  0.00  0.00    +0.166 C 
BRANCH  63  64
ATOM     64  OG  SER A   4      84.855   8.233 112.938  0.00  0.00    -0.380 OA
ATOM     65  H   SER A   4      84.458   7.466 113.421  0.00  0.00    +0.211 HD
ENDBRANCH  63  64
ENDBRANCH  35  63
ENDBRANCH   3  35
TORSDOF 25
REMARK  Name = ../refined-set-2016/3upk/3upk_pocket.pdb
REMARK  243 active torsions:
REMARK  status: ('A' for Active; 'I' for Inactive)
REMARK    1  A    between atoms: _1  and  _3
REMARK    2  A    between atoms: _3  and  _4
REMARK    3  A    between atoms: _3  and  _6
REMARK    4  A    between atoms: _6  and  _7
REMARK    5  A    between atoms: _7  and  _8
REMARK    6  A    between atoms: _8  and  _9
REMARK    7  A    between atoms: _9  and  _10
REMARK    8  A    between atoms: _16  and  _17
REMARK    9  A    between atoms: _16  and  _19
REMARK   10  A    between atoms: _19  and  _20
REMARK   11  A    between atoms: _25  and  _27
REMARK   12  A    between atoms: _27  and  _28
REMARK   13  A    between atoms: _31  and  _33
REMARK   14  A    between atoms: _33  and  _34
REMARK   15  A    between atoms: _33  and  _36
REMARK   16  A    between atoms: _36  and  _37
REMARK   17  A    between atoms: _41  and  _42
REMARK   18  A    between atoms: _47  and  _49
REMARK   19  A    between atoms: _49  and  _50
REMARK   20  A    between atoms: _49  and  _52
REMARK   21  A    between atoms: _52  and  _53
REMARK   22  A    between atoms: _59  and  _61
REMARK   23  A    between atoms: _61  and  _62
REMARK   24  A    between atoms: _61  and  _64
REMARK   25  A    between atoms: _64  and  _65
REMARK   26  A    between atoms: _68  and  _70
REMARK   27  A    between atoms: _70  and  _71
REMARK   28  A    between atoms: _70  and  _73
REMARK   29  A    between atoms: _73  and  _74
REMARK   30  A    between atoms: _74  and  _75
REMARK   31  A    between atoms: _77  and  _79
REMARK   32  A    between atoms: _79  and  _80
REMARK   33  A    between atoms: _79  and  _82
REMARK   34  A    between atoms: _82  and  _83
REMARK   35  A    between atoms: _83  and  _84
REMARK   36  A    between atoms: _84  and  _85
REMARK   37  A    between atoms: _94  and  _96
REMARK   38  A    between atoms: _96  and  _97
REMARK   39  A    between atoms: _100  and  _102
REMARK   40  A    between atoms: _102  and  _103
REMARK   41  A    between atoms: _102  and  _105
REMARK   42  A    between atoms: _105  and  _106
REMARK   43  A    between atoms: _108  and  _110
REMARK   44  A    between atoms: _110  and  _111
REMARK   45  A    between atoms: _110  and  _113
REMARK   46  A    between atoms: _113  and  _114
REMARK   47  A    between atoms: _117  and  _119
REMARK   48  A    between atoms: _119  and  _120
REMARK   49  A    between atoms: _119  and  _122
REMARK   50  A    between atoms: _122  and  _123
REMARK   51  A    between atoms: _133  and  _135
REMARK   52  A    between atoms: _135  and  _136
REMARK   53  A    between atoms: _135  and  _138
REMARK   54  A    between atoms: _138  and  _139
REMARK   55  A    between atoms: _142  and  _144
REMARK   56  A    between atoms: _144  and  _145
REMARK   57  A    between atoms: _147  and  _149
REMARK   58  A    between atoms: _149  and  _150
REMARK   59  A    between atoms: _153  and  _155
REMARK   60  A    between atoms: _155  and  _156
REMARK   61  A    between atoms: _155  and  _158
REMARK   62  A    between atoms: _158  and  _159
REMARK   63  A    between atoms: _159  and  _160
REMARK   64  A    between atoms: _160  and  _161
REMARK   65  A    between atoms: _171  and  _172
REMARK   66  A    between atoms: _177  and  _179
REMARK   67  A    between atoms: _179  and  _180
REMARK   68  A    between atoms: _179  and  _182
REMARK   69  A    between atoms: _185  and  _187
REMARK   70  A    between atoms: _187  and  _188
REMARK   71  A    between atoms: _187  and  _190
REMARK   72  A    between atoms: _190  and  _191
REMARK   73  A    between atoms: _194  and  _196
REMARK   74  A    between atoms: _196  and  _197
REMARK   75  A    between atoms: _196  and  _199
REMARK   76  A    between atoms: _199  and  _200
REMARK   77  A    between atoms: _203  and  _205
REMARK   78  A    between atoms: _205  and  _206
REMARK   79  A    between atoms: _205  and  _208
REMARK   80  A    between atoms: _208  and  _209
REMARK   81  A    between atoms: _214  and  _216
REMARK   82  A    between atoms: _216  and  _217
REMARK   83  A    between atoms: _216  and  _219
REMARK   84  A    between atoms: _219  and  _220
REMARK   85  A    between atoms: _223  and  _225
REMARK   86  A    between atoms: _225  and  _226
REMARK   87  A    between atoms: _225  and  _228
REMARK   88  A    between atoms: _228  and  _229
REMARK   89  A    between atoms: _235  and  _237
REMARK   90  A    between atoms: _237  and  _238
REMARK   91  A    between atoms: _240  and  _242
REMARK   92  A    between atoms: _242  and  _243
REMARK   93  A    between atoms: _242  and  _245
REMARK   94  A    between atoms: _245  and  _246
REMARK   95  A    between atoms: _246  and  _247
REMARK   96  A    between atoms: _249  and  _251
REMARK   97  A    between atoms: _251  and  _252
REMARK   98  A    between atoms: _251  and  _254
REMARK   99  A    between atoms: _254  and  _255
REMARK  100  A    between atoms: _258  and  _260
REMARK  101  A    between atoms: _260  and  _261
REMARK  102  A    between atoms: _260  and  _263
REMARK  103  A    between atoms: _263  and  _264
REMARK  104  A    between atoms: _264  and  _265
REMARK  105  A    between atoms: _265  and  _266
REMARK  106  A    between atoms: _266  and  _267
REMARK  107  A    between atoms: _271  and  _273
REMARK  108  A    between atoms: _273  and  _274
REMARK  109  A    between atoms: _273  and  _276
REMARK  110  A    between atoms: _279  and  _281
REMARK  111  A    between atoms: _281  and  _282
REMARK  112  A    between atoms: _281  and  _284
REMARK  113  A    between atoms: _284  and  _285
REMARK  114  A    between atoms: _287  and  _289
REMARK  115  A    between atoms: _289  and  _290
REMARK  116  A    between atoms: _289  and  _292
REMARK  117  A    between atoms: _295  and  _297
REMARK  118  A    between atoms: _297  and  _298
REMARK  119  A    between atoms: _300  and  _302
REMARK  120  A    between atoms: _302  and  _303
REMARK  121  A    between atoms: _306  and  _308
REMARK  122  A    between atoms: _308  and  _309
REMARK  123  A    between atoms: _308  and  _311
REMARK  124  A    between atoms: _311  and  _312
REMARK  125  A    between atoms: _315  and  _317
REMARK  126  A    between atoms: _317  and  _318
REMARK  127  A    between atoms: _317  and  _320
REMARK  128  A    between atoms: _323  and  _325
REMARK  129  A    between atoms: _325  and  _326
REMARK  130  A    between atoms: _325  and  _328
REMARK  131  A    between atoms: _328  and  _329
REMARK  132  A    between atoms: _332  and  _334
REMARK  133  A    between atoms: _334  and  _335
REMARK  134  A    between atoms: _338  and  _340
REMARK  135  A    between atoms: _340  and  _341
REMARK  136  A    between atoms: _340  and  _343
REMARK  137  A    between atoms: _343  and  _344
REMARK  138  A    between atoms: _344  and  _345
REMARK  139  A    between atoms: _345  and  _346
REMARK  140  A    between atoms: _355  and  _357
REMARK  141  A    between atoms: _357  and  _358
REMARK  142  A    between atoms: _357  and  _360
REMARK  143  A    between atoms: _360  and  _361
REMARK  144  A    between atoms: _361  and  _362
REMARK  145  A    between atoms: _365  and  _367
REMARK  146  A    between atoms: _367  and  _368
REMARK  147  A    between atoms: _367  and  _370
REMARK  148  A    between atoms: _370  and  _371
REMARK  149  A    between atoms: _371  and  _372
REMARK  150  A    between atoms: _375  and  _377
REMARK  151  A    between atoms: _377  and  _378
REMARK  152  A    between atoms: _377  and  _380
REMARK  153  A    between atoms: _380  and  _381
REMARK  154  A    between atoms: _384  and  _386
REMARK  155  A    between atoms: _386  and  _387
REMARK  156  A    between atoms: _386  and  _389
REMARK  157  A    between atoms: _389  and  _390
REMARK  158  A    between atoms: _390  and  _391
REMARK  159  A    between atoms: _391  and  _392
REMARK  160  A    between atoms: _401  and  _403
REMARK  161  A    between atoms: _403  and  _404
REMARK  162  A    between atoms: _403  and  _406
REMARK  163  A    between atoms: _406  and  _407
REMARK  164  A    between atoms: _410  and  _412
REMARK  165  A    between atoms: _412  and  _413
REMARK  166  A    between atoms: _412  and  _415
REMARK  167  A    between atoms: _415  and  _416
REMARK  168  A    between atoms: _419  and  _421
REMARK  169  A    between atoms: _421  and  _422
REMARK  170  A    between atoms: _426  and  _427
REMARK  171  A    between atoms: _432  and  _434
REMARK  172  A    between atoms: _434  and  _435
REMARK  173  A    between atoms: _434  and  _437
REMARK  174  A    between atoms: _437  and  _438
REMARK  175  A    between atoms: _443  and  _445
REMARK  176  A    between atoms: _445  and  _446
REMARK  177  A    between atoms: _445  and  _448
REMARK  178  A    between atoms: _448  and  _449
REMARK  179  A    between atoms: _456  and  _457
REMARK  180  A    between atoms: _462  and  _464
REMARK  181  A    between atoms: _464  and  _465
REMARK  182  A    between atoms: _464  and  _467
REMARK  183  A    between atoms: _467  and  _468
REMARK  184  A    between atoms: _471  and  _473
REMARK  185  A    between atoms: _473  and  _474
REMARK  186  A    between atoms: _473  and  _476
REMARK  187  A    between atoms: _476  and  _477
REMARK  188  A    between atoms: _480  and  _482
REMARK  189  A    between atoms: _482  and  _483
REMARK  190  A    between atoms: _482  and  _485
REMARK  191  A    between atoms: _485  and  _486
REMARK  192  A    between atoms: _486  and  _487
REMARK  193  A    between atoms: _489  and  _491
REMARK  194  A    between atoms: _491  and  _492
REMARK  195  A    between atoms: _491  and  _494
REMARK  196  A    between atoms: _494  and  _495
REMARK  197  A    between atoms: _495  and  _496
REMARK  198  A    between atoms: _501  and  _503
REMARK  199  A    between atoms: _503  and  _504
REMARK  200  A    between atoms: _503  and  _506
REMARK  201  A    between atoms: _506  and  _507
REMARK  202  A    between atoms: _507  and  _508
REMARK  203  A    between atoms: _511  and  _513
REMARK  204  A    between atoms: _513  and  _514
REMARK  205  A    between atoms: _513  and  _516
REMARK  206  A    between atoms: _516  and  _517
REMARK  207  A    between atoms: _520  and  _522
REMARK  208  A    between atoms: _522  and  _523
REMARK  209  A    between atoms: _522  and  _525
REMARK  210  A    between atoms: _525  and  _526
REMARK  211  A    between atoms: _529  and  _531
REMARK  212  A    between atoms: _531  and  _532
REMARK  213  A    between atoms: _531  and  _534
REMARK  214  A    between atoms: _534  and  _535
REMARK  215  A    between atoms: _543  and  _544
REMARK  216  A    between atoms: _543  and  _546
REMARK  217  A    between atoms: _546  and  _547
REMARK  218  A    between atoms: _547  and  _548
REMARK  219  A    between atoms: _551  and  _553
REMARK  220  A    between atoms: _553  and  _554
REMARK  221  A    between atoms: _553  and  _556
REMARK  222  A    between atoms: _556  and  _557
REMARK  223  A    between atoms: _562  and  _564
REMARK  224  A    between atoms: _564  and  _565
REMARK  225  A    between atoms: _564  and  _567
REMARK  226  A    between atoms: _567  and  _568
REMARK  227  A    between atoms: _568  and  _569
REMARK  228  A    between atoms: _569  and  _570
REMARK  229  A    between atoms: _579  and  _581
REMARK  230  A    between atoms: _581  and  _582
REMARK  231  A    between atoms: _581  and  _584
REMARK  232  A    between atoms: _584  and  _585
REMARK  233  A    between atoms: _590  and  _591
REMARK  234  A    between atoms: _590  and  _593
REMARK  235  A    between atoms: _593  and  _594
REMARK  236  A    between atoms: _597  and  _599
REMARK  237  A    between atoms: _599  and  _600
REMARK  238  A    between atoms: _599  and  _602
REMARK  239  A    between atoms: _602  and  _603
REMARK  240  A    between atoms: _603  and  _604
REMARK  241  A    between atoms: _604  and  _605
REMARK  242  A    between atoms: _614  and  _616
REMARK  243  A    between atoms: _616  and  _617
REMARK                            x       y       z     vdW  Elec       q    Type
REMARK                         _______ _______ _______ _____ _____    ______ ____
ROOT
ATOM      1  C   VAL A   6      82.368  12.954 125.811  0.00  0.00    +0.241 C 
ATOM      2  N   ASP A   7      81.529  13.256 126.806  0.00  0.00    -0.297 N 
ATOM      3  H   ASP A   7      80.677  12.669 126.912  0.00  0.00    +0.150 HD
ATOM      4  O   VAL A   6      83.420  13.572 125.572  0.00  0.00    -0.273 OA
ENDROOT
BRANCH   2   5
ATOM      5  CA  ASP A   7      81.721  14.355 127.761  0.00  0.00    +0.160 C 
BRANCH   5   6
ATOM      6  C   ASP A   7      83.129  14.366 128.383  0.00  0.00    +0.241 C 
ATOM      7  N   LEU A   8      83.639  13.183 128.685  0.00  0.00    -0.297 N 
ATOM      8  H   LEU A   8      83.087  12.326 128.478  0.00  0.00    +0.150 HD
ATOM      9  O   ASP A   7      83.728  15.420 128.589  0.00  0.00    -0.273 OA
BRANCH   7  10
ATOM     10  CA  LEU A   8      84.958  13.049 129.302  0.00  0.00    +0.149 C 
BRANCH  10  11
ATOM     11  C   LEU A   8      86.111  13.428 128.377  0.00  0.00    +0.241 C 
ATOM     12  O   LEU A   8      87.143  13.932 128.823  0.00  0.00    -0.273 OA
ATOM     13  N   HIS A   9      85.933  13.137 127.092  0.00  0.00    -0.297 N 
ATOM     14  H   HIS A   9      85.068  12.639 126.800  0.00  0.00    +0.150 HD
BRANCH  13  15
ATOM     15  CA  HIS A   9      86.928  13.502 126.076  0.00  0.00    +0.155 C 
BRANCH  15  16
ATOM     16  C   HIS A   9      86.994  15.035 126.034  0.00  0.00    +0.241 C 
ATOM     17  O   HIS A   9      88.066  15.634 126.048  0.00  0.00    -0.273 OA
ATOM     18  N   ILE A  10      85.823  15.652 125.930  0.00  0.00    -0.297 N 
ATOM     19  H   ILE A  10      84.951  15.086 125.911  0.00  0.00    +0.150 HD
BRANCH  18  20
ATOM     20  CA  ILE A  10      85.731  17.107 125.841  0.00  0.00    +0.149 C 
BRANCH  20  21
ATOM     21  C   ILE A  10      86.301  17.754 127.090  0.00  0.00    +0.241 C 
ATOM     22  N   PHE A  11      85.850  17.272 128.246  0.00  0.00    -0.297 N 
ATOM     23  H   PHE A  11      85.123  16.529 128.223  0.00  0.00    +0.150 HD
ATOM     24  O   ILE A  10      87.124  18.664 127.004  0.00  0.00    -0.273 OA
BRANCH  22  25
ATOM     25  CA  PHE A  11      86.329  17.738 129.544  0.00  0.00    +0.153 C 
BRANCH  25  26
ATOM     26  C   PHE A  11      87.852  17.690 129.570  0.00  0.00    +0.241 C 
ATOM     27  O   PHE A  11      88.517  18.672 129.921  0.00  0.00    -0.273 OA
ATOM     28  N   GLY A  12      88.401  16.537 129.202  0.00  0.00    -0.296 N 
ATOM     29  H   GLY A  12      87.797  15.742 128.910  0.00  0.00    +0.150 HD
BRANCH  28  30
ATOM     30  CA  GLY A  12      89.847  16.389 129.208  0.00  0.00    +0.163 C 
BRANCH  30  31
ATOM     31  C   GLY A  12      90.542  17.428 128.347  0.00  0.00    +0.229 C 
ATOM     32  O   GLY A  12      91.519  18.053 128.771  0.00  0.00    -0.286 OA
ENDBRANCH  30  31
ENDBRANCH  28  30
ENDBRANCH  25  26
BRANCH  25  33
ATOM     33  CB  PHE A  11      85.702  16.946 130.696  0.00  0.00    +0.055 C 
BRANCH  33  34
ATOM     34  CG  PHE A  11      86.326  17.203 132.043  0.00  0.00    -0.020 A 
ATOM     35  CD2 PHE A  11      85.996  18.344 132.777  0.00  0.00    -0.004 A 
ATOM     36  CE2 PHE A  11      86.536  18.560 134.053  0.00  0.00    -0.000 A 
ATOM     37  CZ  PHE A  11      87.419  17.630 134.602  0.00  0.00    -0.000 A 
ATOM     38  CE1 PHE A  11      87.758  16.492 133.873  0.00  0.00    -0.000 A 
ATOM     39  CD1 PHE A  11      87.208  16.286 132.596  0.00  0.00    -0.004 A 
ENDBRANCH  33  34
ENDBRANCH  25  33
ENDBRANCH  22  25
ENDBRANCH  20  21
BRANCH  20  40
ATOM     40  CB  ILE A  10      84.261  17.540 125.606  0.00  0.00    +0.027 C 
ATOM     41  CG2 ILE A  10      84.139  19.066 125.626  0.00  0.00    +0.002 C 
BRANCH  40  42
ATOM     42  CG1 ILE A  10      83.800  17.014 124.235  0.00  0.00    +0.002 C 
ATOM     43  CD1 ILE A  10      82.316  17.203 123.978  0.00  0.00    +0.000 C 
ENDBRANCH  40  42
ENDBRANCH  20  40
ENDBRANCH  18  20
ENDBRANCH  15  16
BRANCH  15  44
ATOM     44  CB  HIS A   9      86.578  12.992 124.679  0.00  0.00    +0.076 C 
BRANCH  44  45
ATOM     45  CG  HIS A   9      86.406  11.504 124.581  0.00  0.00    +0.082 A 
ATOM     46  CD2 HIS A   9      85.464  10.680 125.101  0.00  0.00    +0.115 A 
ATOM     47  NE2 HIS A   9      85.735   9.414 124.645  0.00  0.00    -0.221 NA
ATOM     48  CE1 HIS A   9      86.809   9.456 123.872  0.00  0.00    +0.199 A 
ATOM     49  ND1 HIS A   9      87.234  10.707 123.816  0.00  0.00    -0.227 NA
ENDBRANCH  44  45
ENDBRANCH  15  44
ENDBRANCH  13  15
ENDBRANCH  10  11
BRANCH  10  50
ATOM     50  CB  LEU A   8      85.151  11.725 130.021  0.00  0.00    +0.029 C 
BRANCH  50  51
ATOM     51  CG  LEU A   8      84.098  11.351 131.075  0.00  0.00    +0.002 C 
ATOM     52  CD2 LEU A   8      84.140  12.349 132.231  0.00  0.00    +0.000 C 
ATOM     53  CD1 LEU A   8      84.376   9.944 131.590  0.00  0.00    +0.000 C 
ENDBRANCH  50  51
ENDBRANCH  10  50
ENDBRANCH   7  10
ENDBRANCH   5   6
BRANCH   5  54
ATOM     54  CB  ASP A   7      80.639  14.373 128.848  0.00  0.00    +0.143 C 
BRANCH  54  55
ATOM     55  CG  ASP A   7      80.605  13.054 129.658  0.00  0.00    +0.367 C 
ATOM     56  OD2 ASP A   7      80.787  13.060 130.906  0.00  0.00    -0.246 OA
ATOM     57  OD1 ASP A   7      80.406  11.993 129.029  0.00  0.00    -0.246 OA
ENDBRANCH  54  55
ENDBRANCH   5  54
ENDBRANCH   2   5
BRANCH   1  58
ATOM     58  CA  VAL A   6      81.957  11.740 124.974  0.00  0.00    +0.149 C 
BRANCH  58  61
ATOM     59  C   PRO A   5      79.969  10.411 125.525  0.00  0.00    +0.241 C 
ATOM     60  O   PRO A   5      80.621   9.446 125.957  0.00  0.00    -0.273 OA
ATOM     61  N   VAL A   6      80.514  11.531 125.041  0.00  0.00    -0.297 N 
ATOM     62  H   VAL A   6      79.884  12.284 124.698  0.00  0.00    +0.150 HD
BRANCH  59  68
ATOM     63  C   ARG A   4      78.217   8.026 124.858  0.00  0.00    +0.244 C 
ATOM     64  N   PRO A   5      77.999   8.987 125.784  0.00  0.00    -0.272 N 
ATOM     65  CD  PRO A   5      77.447   8.847 127.143  0.00  0.00    +0.094 C 
ATOM     66  CG  PRO A   5      77.976  10.111 127.850  0.00  0.00    +0.024 C 
ATOM     67  CB  PRO A   5      77.902  11.144 126.722  0.00  0.00    +0.031 C 
ATOM     68  CA  PRO A   5      78.453  10.366 125.536  0.00  0.00    +0.152 C 
ATOM     69  O   ARG A   4      78.764   8.266 123.791  0.00  0.00    -0.273 OA
BRANCH  63  70
ATOM     70  CA  ARG A   4      77.729   6.604 125.159  0.00  0.00    +0.149 C 
BRANCH  70  73
ATOM     71  C   ALA A   3      75.777   5.860 126.400  0.00  0.00    +0.241 C 
ATOM     72  O   ALA A   3      76.468   5.237 127.207  0.00  0.00    -0.273 OA
ATOM     73  N   ARG A   4      76.291   6.542 125.384  0.00  0.00    -0.297 N 
ATOM     74  H   ARG A   4      75.653   7.043 124.734  0.00  0.00    +0.150 HD
BRANCH  71  75
ATOM     75  CA  ALA A   3      74.260   5.875 126.521  0.00  0.00    +0.149 C 
ATOM     76  CB  ALA A   3      73.836   6.585 127.806  0.00  0.00    +0.031 C 
BRANCH  75  78
ATOM     77  C   GLY A   2      73.782   3.768 125.427  0.00  0.00    +0.243 C 
ATOM     78  N   ALA A   3      73.802   4.498 126.534  0.00  0.00    -0.297 N 
ATOM     79  H   ALA A   3      73.483   4.075 127.429  0.00  0.00    +0.150 HD
ATOM     80  O   GLY A   2      74.120   4.209 124.326  0.00  0.00    -0.273 OA
BRANCH  77  81
ATOM     81  CA  GLY A   2      73.298   2.331 125.599  0.00  0.00    +0.176 C 
BRANCH  81  84
ATOM     82  C   ILE A   1      73.691   0.209 124.523  0.00  0.00    +0.238 C 
ATOM     83  O   ILE A   1      73.915  -0.344 125.604  0.00  0.00    -0.274 OA
ATOM     84  N   GLY A   2      73.398   1.503 124.410  0.00  0.00    -0.296 N 
ATOM     85  H   GLY A   2      73.241   1.921 123.471  0.00  0.00    +0.150 HD
BRANCH  82  86
ATOM     86  CA  ILE A   1      73.768  -0.587 123.236  0.00  0.00    +0.145 C 
BRANCH  86  87
ATOM     87  N   ILE A   1      73.387   0.116 122.010  0.00  0.00    -0.238 NA
ATOM     88  H   ILE A   1      74.113   0.484 121.363  0.00  0.00    +0.142 HD
ENDBRANCH  86  87
BRANCH  86  89
ATOM     89  CB  ILE A   1      75.195  -1.221 123.150  0.00  0.00    +0.025 C 
ATOM     90  CG2 ILE A   1      75.382  -1.917 121.799  0.00  0.00    +0.002 C 
BRANCH  89  91
ATOM     91  CG1 ILE A   1      76.272  -0.164 123.357  0.00  0.00    +0.002 C 
ATOM     92  CD1 ILE A   1      77.683  -0.743 123.318  0.00  0.00    +0.000 C 
ENDBRANCH  89  91
ENDBRANCH  86  89
ENDBRANCH  82  86
ENDBRANCH  81  84
ENDBRANCH  77  81
ENDBRANCH  75  78
ENDBRANCH  71  75
ENDBRANCH  70  73
BRANCH  70  93
ATOM     93  CB  ARG A   4      78.219   5.576 124.130  0.00  0.00    +0.033 C 
BRANCH  93  94
ATOM     94  CG  ARG A   4      77.840   4.125 124.413  0.00  0.00    +0.045 C 
BRANCH  94  95
ATOM     95  CD  ARG A   4      78.304   3.211 123.262  0.00  0.00    +0.174 C 
BRANCH  95  96
ATOM     96  NE  ARG A   4      79.761   3.122 123.217  0.00  0.00    -0.265 N 
ATOM     97  HE  ARG A   4      80.306   3.610 123.956  0.00  0.00    +0.259 HD
ATOM     98  CZ  ARG A   4      80.429   2.450 122.282  0.00  0.00    +0.342 C 
ATOM     99  NH2 ARG A   4      81.756   2.378 122.323  0.00  0.00    -0.292 N 
ATOM    100 HH21 ARG A   4      82.279   2.849 123.089  0.00  0.00    +0.255 HD
ATOM    101 HH22 ARG A   4      82.271   1.851 121.589  0.00  0.00    +0.255 HD
ATOM    102  NH1 ARG A   4      79.756   1.822 121.317  0.00  0.00    -0.292 N 
ATOM    103 HH11 ARG A   4      78.717   1.859 121.299  0.00  0.00    +0.255 HD
ATOM    104 HH12 ARG A   4      80.270   1.295 120.583  0.00  0.00    +0.255 HD
ENDBRANCH  95  96
ENDBRANCH  94  95
ENDBRANCH  93  94
ENDBRANCH  70  93
ENDBRANCH  63  70
ENDBRANCH  59  68
ENDBRANCH  58  61
BRANCH  58 105
ATOM    105  CB  VAL A   6      82.436  11.899 123.489  0.00  0.00    +0.027 C 
ATOM    106  CG2 VAL A   6      81.746  13.078 122.811  0.00  0.00    +0.002 C 
ATOM    107  CG1 VAL A   6      82.123  10.638 122.726  0.00  0.00    +0.002 C 
ENDBRANCH  58 105
ENDBRANCH   1  58
TORSDOF 40
REMARK  Name = ../refined-set-2016/3upk/3upk_pocket.pdb
REMARK  243 active torsions:
REMARK  status: ('A' for Active; 'I' for Inactive)
REMARK    1  A    between atoms: _1  and  _3
REMARK    2  A    between atoms: _3  and  _4
REMARK    3  A    between atoms: _3  and  _6
REMARK    4  A    between atoms: _6  and  _7
REMARK    5  A    between atoms: _7  and  _8
REMARK    6  A    between atoms: _8  and  _9
REMARK    7  A    between atoms: _9  and  _10
REMARK    8  A    between atoms: _16  and  _17
REMARK    9  A    between atoms: _16  and  _19
REMARK   10  A    between atoms: _19  and  _20
REMARK   11  A    between atoms: _25  and  _27
REMARK   12  A    between atoms: _27  and  _28
REMARK   13  A    between atoms: _31  and  _33
REMARK   14  A    between atoms: _33  and  _34
REMARK   15  A    between atoms: _33  and  _36
REMARK   16  A    between atoms: _36  and  _37
REMARK   17  A    between atoms: _41  and  _42
REMARK   18  A    between atoms: _47  and  _49
REMARK   19  A    between atoms: _49  and  _50
REMARK   20  A    between atoms: _49  and  _52
REMARK   21  A    between atoms: _52  and  _53
REMARK   22  A    between atoms: _59  and  _61
REMARK   23  A    between atoms: _61  and  _62
REMARK   24  A    between atoms: _61  and  _64
REMARK   25  A    between atoms: _64  and  _65
REMARK   26  A    between atoms: _68  and  _70
REMARK   27  A    between atoms: _70  and  _71
REMARK   28  A    between atoms: _70  and  _73
REMARK   29  A    between atoms: _73  and  _74
REMARK   30  A    between atoms: _74  and  _75
REMARK   31  A    between atoms: _77  and  _79
REMARK   32  A    between atoms: _79  and  _80
REMARK   33  A    between atoms: _79  and  _82
REMARK   34  A    between atoms: _82  and  _83
REMARK   35  A    between atoms: _83  and  _84
REMARK   36  A    between atoms: _84  and  _85
REMARK   37  A    between atoms: _94  and  _96
REMARK   38  A    between atoms: _96  and  _97
REMARK   39  A    between atoms: _100  and  _102
REMARK   40  A    between atoms: _102  and  _103
REMARK   41  A    between atoms: _102  and  _105
REMARK   42  A    between atoms: _105  and  _106
REMARK   43  A    between atoms: _108  and  _110
REMARK   44  A    between atoms: _110  and  _111
REMARK   45  A    between atoms: _110  and  _113
REMARK   46  A    between atoms: _113  and  _114
REMARK   47  A    between atoms: _117  and  _119
REMARK   48  A    between atoms: _119  and  _120
REMARK   49  A    between atoms: _119  and  _122
REMARK   50  A    between atoms: _122  and  _123
REMARK   51  A    between atoms: _133  and  _135
REMARK   52  A    between atoms: _135  and  _136
REMARK   53  A    between atoms: _135  and  _138
REMARK   54  A    between atoms: _138  and  _139
REMARK   55  A    between atoms: _142  and  _144
REMARK   56  A    between atoms: _144  and  _145
REMARK   57  A    between atoms: _147  and  _149
REMARK   58  A    between atoms: _149  and  _150
REMARK   59  A    between atoms: _153  and  _155
REMARK   60  A    between atoms: _155  and  _156
REMARK   61  A    between atoms: _155  and  _158
REMARK   62  A    between atoms: _158  and  _159
REMARK   63  A    between atoms: _159  and  _160
REMARK   64  A    between atoms: _160  and  _161
REMARK   65  A    between atoms: _171  and  _172
REMARK   66  A    between atoms: _177  and  _179
REMARK   67  A    between atoms: _179  and  _180
REMARK   68  A    between atoms: _179  and  _182
REMARK   69  A    between atoms: _185  and  _187
REMARK   70  A    between atoms: _187  and  _188
REMARK   71  A    between atoms: _187  and  _190
REMARK   72  A    between atoms: _190  and  _191
REMARK   73  A    between atoms: _194  and  _196
REMARK   74  A    between atoms: _196  and  _197
REMARK   75  A    between atoms: _196  and  _199
REMARK   76  A    between atoms: _199  and  _200
REMARK   77  A    between atoms: _203  and  _205
REMARK   78  A    between atoms: _205  and  _206
REMARK   79  A    between atoms: _205  and  _208
REMARK   80  A    between atoms: _208  and  _209
REMARK   81  A    between atoms: _214  and  _216
REMARK   82  A    between atoms: _216  and  _217
REMARK   83  A    between atoms: _216  and  _219
REMARK   84  A    between atoms: _219  and  _220
REMARK   85  A    between atoms: _223  and  _225
REMARK   86  A    between atoms: _225  and  _226
REMARK   87  A    between atoms: _225  and  _228
REMARK   88  A    between atoms: _228  and  _229
REMARK   89  A    between atoms: _235  and  _237
REMARK   90  A    between atoms: _237  and  _238
REMARK   91  A    between atoms: _240  and  _242
REMARK   92  A    between atoms: _242  and  _243
REMARK   93  A    between atoms: _242  and  _245
REMARK   94  A    between atoms: _245  and  _246
REMARK   95  A    between atoms: _246  and  _247
REMARK   96  A    between atoms: _249  and  _251
REMARK   97  A    between atoms: _251  and  _252
REMARK   98  A    between atoms: _251  and  _254
REMARK   99  A    between atoms: _254  and  _255
REMARK  100  A    between atoms: _258  and  _260
REMARK  101  A    between atoms: _260  and  _261
REMARK  102  A    between atoms: _260  and  _263
REMARK  103  A    between atoms: _263  and  _264
REMARK  104  A    between atoms: _264  and  _265
REMARK  105  A    between atoms: _265  and  _266
REMARK  106  A    between atoms: _266  and  _267
REMARK  107  A    between atoms: _271  and  _273
REMARK  108  A    between atoms: _273  and  _274
REMARK  109  A    between atoms: _273  and  _276
REMARK  110  A    between atoms: _279  and  _281
REMARK  111  A    between atoms: _281  and  _282
REMARK  112  A    between atoms: _281  and  _284
REMARK  113  A    between atoms: _284  and  _285
REMARK  114  A    between atoms: _287  and  _289
REMARK  115  A    between atoms: _289  and  _290
REMARK  116  A    between atoms: _289  and  _292
REMARK  117  A    between atoms: _295  and  _297
REMARK  118  A    between atoms: _297  and  _298
REMARK  119  A    between atoms: _300  and  _302
REMARK  120  A    between atoms: _302  and  _303
REMARK  121  A    between atoms: _306  and  _308
REMARK  122  A    between atoms: _308  and  _309
REMARK  123  A    between atoms: _308  and  _311
REMARK  124  A    between atoms: _311  and  _312
REMARK  125  A    between atoms: _315  and  _317
REMARK  126  A    between atoms: _317  and  _318
REMARK  127  A    between atoms: _317  and  _320
REMARK  128  A    between atoms: _323  and  _325
REMARK  129  A    between atoms: _325  and  _326
REMARK  130  A    between atoms: _325  and  _328
REMARK  131  A    between atoms: _328  and  _329
REMARK  132  A    between atoms: _332  and  _334
REMARK  133  A    between atoms: _334  and  _335
REMARK  134  A    between atoms: _338  and  _340
REMARK  135  A    between atoms: _340  and  _341
REMARK  136  A    between atoms: _340  and  _343
REMARK  137  A    between atoms: _343  and  _344
REMARK  138  A    between atoms: _344  and  _345
REMARK  139  A    between atoms: _345  and  _346
REMARK  140  A    between atoms: _355  and  _357
REMARK  141  A    between atoms: _357  and  _358
REMARK  142  A    between atoms: _357  and  _360
REMARK  143  A    between atoms: _360  and  _361
REMARK  144  A    between atoms: _361  and  _362
REMARK  145  A    between atoms: _365  and  _367
REMARK  146  A    between atoms: _367  and  _368
REMARK  147  A    between atoms: _367  and  _370
REMARK  148  A    between atoms: _370  and  _371
REMARK  149  A    between atoms: _371  and  _372
REMARK  150  A    between atoms: _375  and  _377
REMARK  151  A    between atoms: _377  and  _378
REMARK  152  A    between atoms: _377  and  _380
REMARK  153  A    between atoms: _380  and  _381
REMARK  154  A    between atoms: _384  and  _386
REMARK  155  A    between atoms: _386  and  _387
REMARK  156  A    between atoms: _386  and  _389
REMARK  157  A    between atoms: _389  and  _390
REMARK  158  A    between atoms: _390  and  _391
REMARK  159  A    between atoms: _391  and  _392
REMARK  160  A    between atoms: _401  and  _403
REMARK  161  A    between atoms: _403  and  _404
REMARK  162  A    between atoms: _403  and  _406
REMARK  163  A    between atoms: _406  and  _407
REMARK  164  A    between atoms: _410  and  _412
REMARK  165  A    between atoms: _412  and  _413
REMARK  166  A    between atoms: _412  and  _415
REMARK  167  A    between atoms: _415  and  _416
REMARK  168  A    between atoms: _419  and  _421
REMARK  169  A    between atoms: _421  and  _422
REMARK  170  A    between atoms: _426  and  _427
REMARK  171  A    between atoms: _432  and  _434
REMARK  172  A    between atoms: _434  and  _435
REMARK  173  A    between atoms: _434  and  _437
REMARK  174  A    between atoms: _437  and  _438
REMARK  175  A    between atoms: _443  and  _445
REMARK  176  A    between atoms: _445  and  _446
REMARK  177  A    between atoms: _445  and  _448
REMARK  178  A    between atoms: _448  and  _449
REMARK  179  A    between atoms: _456  and  _457
REMARK  180  A    between atoms: _462  and  _464
REMARK  181  A    between atoms: _464  and  _465
REMARK  182  A    between atoms: _464  and  _467
REMARK  183  A    between atoms: _467  and  _468
REMARK  184  A    between atoms: _471  and  _473
REMARK  185  A    between atoms: _473  and  _474
REMARK  186  A    between atoms: _473  and  _476
REMARK  187  A    between atoms: _476  and  _477
REMARK  188  A    between atoms: _480  and  _482
REMARK  189  A    between atoms: _482  and  _483
REMARK  190  A    between atoms: _482  and  _485
REMARK  191  A    between atoms: _485  and  _486
REMARK  192  A    between atoms: _486  and  _487
REMARK  193  A    between atoms: _489  and  _491
REMARK  194  A    between atoms: _491  and  _492
REMARK  195  A    between atoms: _491  and  _494
REMARK  196  A    between atoms: _494  and  _495
REMARK  197  A    between atoms: _495  and  _496
REMARK  198  A    between atoms: _501  and  _503
REMARK  199  A    between atoms: _503  and  _504
REMARK  200  A    between atoms: _503  and  _506
REMARK  201  A    between atoms: _506  and  _507
REMARK  202  A    between atoms: _507  and  _508
REMARK  203  A    between atoms: _511  and  _513
REMARK  204  A    between atoms: _513  and  _514
REMARK  205  A    between atoms: _513  and  _516
REMARK  206  A    between atoms: _516  and  _517
REMARK  207  A    between atoms: _520  and  _522
REMARK  208  A    between atoms: _522  and  _523
REMARK  209  A    between atoms: _522  and  _525
REMARK  210  A    between atoms: _525  and  _526
REMARK  211  A    between atoms: _529  and  _531
REMARK  212  A    between atoms: _531  and  _532
REMARK  213  A    between atoms: _531  and  _534
REMARK  214  A    between atoms: _534  and  _535
REMARK  215  A    between atoms: _543  and  _544
REMARK  216  A    between atoms: _543  and  _546
REMARK  217  A    between atoms: _546  and  _547
REMARK  218  A    between atoms: _547  and  _548
REMARK  219  A    between atoms: _551  and  _553
REMARK  220  A    between atoms: _553  and  _554
REMARK  221  A    between atoms: _553  and  _556
REMARK  222  A    between atoms: _556  and  _557
REMARK  223  A    between atoms: _562  and  _564
REMARK  224  A    between atoms: _564  and  _565
REMARK  225  A    between atoms: _564  and  _567
REMARK  226  A    between atoms: _567  and  _568
REMARK  227  A    between atoms: _568  and  _569
REMARK  228  A    between atoms: _569  and  _570
REMARK  229  A    between atoms: _579  and  _581
REMARK  230  A    between atoms: _581  and  _582
REMARK  231  A    between atoms: _581  and  _584
REMARK  232  A    between atoms: _584  and  _585
REMARK  233  A    between atoms: _590  and  _591
REMARK  234  A    between atoms: _590  and  _593
REMARK  235  A    between atoms: _593  and  _594
REMARK  236  A    between atoms: _597  and  _599
REMARK  237  A    between atoms: _599  and  _600
REMARK  238  A    between atoms: _599  and  _602
REMARK  239  A    between atoms: _602  and  _603
REMARK  240  A    between atoms: _603  and  _604
REMARK  241  A    between atoms: _604  and  _605
REMARK  242  A    between atoms: _614  and  _616
REMARK  243  A    between atoms: _616  and  _617
REMARK                            x       y       z     vdW  Elec       q    Type
REMARK                         _______ _______ _______ _____ _____    ______ ____
ROOT
ATOM      1  C   SER A   5      88.180   5.175 129.277  0.00  0.00    +0.243 C 
ATOM      2  O   SER A   5      89.173   5.898 129.267  0.00  0.00    -0.273 OA
ATOM      3  N   VAL A   6      88.060   4.101 128.514  0.00  0.00    -0.297 N 
ATOM      4  H   VAL A   6      87.215   3.500 128.598  0.00  0.00    +0.150 HD
ENDROOT
BRANCH   3   5
ATOM      5  CA  VAL A   6      89.102   3.752 127.556  0.00  0.00    +0.149 C 
BRANCH   5   6
ATOM      6  C   VAL A   6      89.256   4.919 126.575  0.00  0.00    +0.241 C 
ATOM      7  O   VAL A   6      90.352   5.450 126.374  0.00  0.00    -0.273 OA
ATOM      8  N   GLY A   7      88.144   5.328 125.973  0.00  0.00    -0.295 N 
ATOM      9  H   GLY A   7      87.235   4.874 126.193  0.00  0.00    +0.150 HD
BRANCH   8  10
ATOM     10  CA  GLY A   7      88.203   6.413 125.005  0.00  0.00    +0.176 C 
BRANCH  10  11
ATOM     11  C   GLY A   7      88.766   7.736 125.512  0.00  0.00    +0.243 C 
ATOM     12  N   ALA A   8      88.299   8.219 126.668  0.00  0.00    -0.297 N 
ATOM     13  H   ALA A   8      87.584   7.684 127.202  0.00  0.00    +0.150 HD
ATOM     14  O   GLY A   7      89.627   8.319 124.855  0.00  0.00    -0.273 OA
BRANCH  12  15
ATOM     15  CA  ALA A   8      88.790   9.500 127.187  0.00  0.00    +0.149 C 
ATOM     16  CB  ALA A   8      87.925   9.970 128.360  0.00  0.00    +0.031 C 
BRANCH  15  17
ATOM     17  C   ALA A   8      90.263   9.425 127.596  0.00  0.00    +0.241 C 
ATOM     18  N   THR A   9      90.667   8.278 128.137  0.00  0.00    -0.295 N 
ATOM     19  H   THR A   9      89.982   7.509 128.284  0.00  0.00    +0.150 HD
ATOM     20  O   ALA A   8      91.016  10.380 127.418  0.00  0.00    -0.273 OA
BRANCH  18  21
ATOM     21  CA  THR A   9      92.055   8.089 128.524  0.00  0.00    +0.176 C 
BRANCH  21  22
ATOM     22  C   THR A   9      92.915   8.241 127.254  0.00  0.00    +0.243 C 
ATOM     23  O   THR A   9      93.907   8.952 127.274  0.00  0.00    -0.273 OA
ATOM     24  N   VAL A  10      92.525   7.585 126.158  0.00  0.00    -0.297 N 
ATOM     25  H   VAL A  10      91.676   6.986 126.197  0.00  0.00    +0.150 HD
BRANCH  24  26
ATOM     26  CA  VAL A  10      93.275   7.693 124.894  0.00  0.00    +0.149 C 
BRANCH  26  27
ATOM     27  C   VAL A  10      93.310   9.132 124.375  0.00  0.00    +0.241 C 
ATOM     28  N   THR A  11      92.149   9.782 124.350  0.00  0.00    -0.296 N 
ATOM     29  H   THR A  11      91.280   9.305 124.665  0.00  0.00    +0.150 HD
ATOM     30  O   VAL A  10      94.373   9.648 123.975  0.00  0.00    -0.273 OA
BRANCH  28  31
ATOM     31  CA  THR A  11      92.092  11.164 123.882  0.00  0.00    +0.164 C 
BRANCH  31  32
ATOM     32  CB  THR A  11      90.657  11.734 124.016  0.00  0.00    +0.136 C 
ATOM     33  CG2 THR A  11      90.663  13.265 123.935  0.00  0.00    +0.034 C 
BRANCH  32  34
ATOM     34  OG1 THR A  11      89.840  11.206 122.961  0.00  0.00    -0.382 OA
ATOM     35  HG1 THR A  11      90.222  11.468 122.086  0.00  0.00    +0.210 HD
ENDBRANCH  32  34
ENDBRANCH  31  32
BRANCH  31  36
ATOM     36  C   THR A  11      93.054  12.066 124.663  0.00  0.00    +0.229 C 
ATOM     37  O   THR A  11      93.887  12.771 124.080  0.00  0.00    -0.286 OA
ENDBRANCH  31  36
ENDBRANCH  28  31
ENDBRANCH  26  27
BRANCH  26  38
ATOM     38  CB  VAL A  10      92.669   6.811 123.775  0.00  0.00    +0.027 C 
ATOM     39  CG2 VAL A  10      92.893   5.345 124.088  0.00  0.00    +0.002 C 
ATOM     40  CG1 VAL A  10      93.341   7.120 122.429  0.00  0.00    +0.002 C 
ENDBRANCH  26  38
ENDBRANCH  24  26
ENDBRANCH  21  22
BRANCH  21  41
ATOM     41  CB  THR A   9      92.276   6.691 129.168  0.00  0.00    +0.137 C 
ATOM     42  CG2 THR A   9      93.745   6.485 129.477  0.00  0.00    +0.034 C 
BRANCH  41  43
ATOM     43  OG1 THR A   9      91.530   6.593 130.398  0.00  0.00    -0.382 OA
ATOM     44  HG1 THR A   9      90.566   6.717 130.209  0.00  0.00    +0.210 HD
ENDBRANCH  41  43
ENDBRANCH  21  41
ENDBRANCH  18  21
ENDBRANCH  15  17
ENDBRANCH  12  15
ENDBRANCH  10  11
ENDBRANCH   8  10
ENDBRANCH   5   6
BRANCH   5  45
ATOM     45  CB  VAL A   6      88.710   2.466 126.791  0.00  0.00    +0.027 C 
ATOM     46  CG2 VAL A   6      88.840   1.273 127.728  0.00  0.00    +0.002 C 
ATOM     47  CG1 VAL A   6      89.599   2.261 125.566  0.00  0.00    +0.002 C 
ENDBRANCH   5  45
ENDBRANCH   3   5
BRANCH   1  48
ATOM     48  CA  SER A   5      87.020   5.477 130.194  0.00  0.00    +0.178 C 
BRANCH  48  51
ATOM     49  C   VAL A   4      86.569   4.729 132.463  0.00  0.00    +0.241 C 
ATOM     50  O   VAL A   4      85.552   4.125 132.111  0.00  0.00    -0.273 OA
ATOM     51  N   SER A   5      87.341   5.394 131.617  0.00  0.00    -0.295 N 
ATOM     52  H   SER A   5      88.195   5.868 131.974  0.00  0.00    +0.150 HD
BRANCH  49  53
ATOM     53  CA  VAL A   4      86.992   4.766 133.931  0.00  0.00    +0.149 C 
BRANCH  53  55
ATOM     54  C   LYS A   3      85.790   6.765 134.481  0.00  0.00    +0.241 C 
ATOM     55  N   VAL A   4      85.855   5.441 134.527  0.00  0.00    -0.297 N 
ATOM     56  H   VAL A   4      85.099   4.893 134.985  0.00  0.00    +0.150 HD
ATOM     57  O   LYS A   3      86.684   7.458 133.992  0.00  0.00    -0.273 OA
BRANCH  54  58
ATOM     58  CA  LYS A   3      84.532   7.408 135.049  0.00  0.00    +0.149 C 
BRANCH  58  61
ATOM     59  C   ASP A   2      84.369   9.399 136.519  0.00  0.00    +0.241 C 
ATOM     60  O   ASP A   2      83.569   8.868 137.296  0.00  0.00    -0.273 OA
ATOM     61  N   LYS A   3      84.840   8.798 135.425  0.00  0.00    -0.297 N 
ATOM     62  H   LYS A   3      85.464   9.346 134.798  0.00  0.00    +0.150 HD
BRANCH  59  63
ATOM     63  CA  ASP A   2      84.839  10.845 136.743  0.00  0.00    +0.160 C 
BRANCH  63  66
ATOM     64  C   MET A   1      87.258  10.532 136.387  0.00  0.00    +0.238 C 
ATOM     65  O   MET A   1      87.346   9.653 137.254  0.00  0.00    -0.274 OA
ATOM     66  N   ASP A   2      86.120  11.154 136.087  0.00  0.00    -0.297 N 
ATOM     67  H   ASP A   2      86.137  11.893 135.355  0.00  0.00    +0.150 HD
BRANCH  64  68
ATOM     68  CA  MET A   1      88.492  10.942 135.569  0.00  0.00    +0.146 C 
BRANCH  68  69
ATOM     69  N   MET A   1      89.609  11.486 136.333  0.00  0.00    -0.238 NA
ATOM     70  H   MET A   1      90.454  10.895 136.469  0.00  0.00    +0.142 HD
ENDBRANCH  68  69
BRANCH  68  71
ATOM     71  CB  MET A   1      88.923   9.840 134.599  0.00  0.00    +0.038 C 
BRANCH  71  72
ATOM     72  CG  MET A   1      90.220  10.120 133.840  0.00  0.00    +0.060 C 
BRANCH  72  73
ATOM     73  SD  MET A   1      90.012  11.549 132.759  0.00  0.00    -0.139 S 
ATOM     74  CE  MET A   1      88.960  10.810 131.523  0.00  0.00    +0.069 C 
ENDBRANCH  72  73
ENDBRANCH  71  72
ENDBRANCH  68  71
ENDBRANCH  64  68
ENDBRANCH  63  66
BRANCH  63  75
ATOM     75  CB  ASP A   2      83.743  11.884 136.458  0.00  0.00    +0.143 C 
BRANCH  75  76
ATOM     76  CG  ASP A   2      83.862  13.142 137.344  0.00  0.00    +0.367 C 
ATOM     77  OD2 ASP A   2      84.555  13.102 138.396  0.00  0.00    -0.246 OA
ATOM     78  OD1 ASP A   2      83.238  14.172 136.997  0.00  0.00    -0.246 OA
ENDBRANCH  75  76
ENDBRANCH  63  75
ENDBRANCH  59  63
ENDBRANCH  58  61
BRANCH  58  79
ATOM     79  CB  LYS A   3      83.405   7.253 134.020  0.00  0.00    +0.029 C 
BRANCH  79  80
ATOM     80  CG  LYS A   3      82.002   7.629 134.465  0.00  0.00    +0.000 C 
BRANCH  80  81
ATOM     81  CD  LYS A   3      81.009   7.314 133.356  0.00  0.00    -0.024 C 
BRANCH  81  82
ATOM     82  CE  LYS A   3      79.597   7.749 133.714  0.00  0.00    -0.086 C 
BRANCH  82  83
ATOM     83  NZ  LYS A   3      78.559   7.214 132.760  0.00  0.00    +0.380 N 
ATOM     84  HZ1 LYS A   3      77.617   7.543 133.054  0.00  0.00    -0.089 HD
ATOM     85  HZ2 LYS A   3      78.583   6.174 132.771  0.00  0.00    -0.089 HD
ATOM     86  HZ3 LYS A   3      78.763   7.557 131.800  0.00  0.00    -0.089 HD
ENDBRANCH  82  83
ENDBRANCH  81  82
ENDBRANCH  80  81
ENDBRANCH  79  80
ENDBRANCH  58  79
ENDBRANCH  54  58
ENDBRANCH  53  55
BRANCH  53  87
ATOM     87  CB  VAL A   4      87.171   3.340 134.477  0.00  0.00    +0.027 C 
ATOM     88  CG2 VAL A   4      87.520   3.403 135.978  0.00  0.00    +0.002 C 
ATOM     89  CG1 VAL A   4      88.278   2.630 133.709  0.00  0.00    +0.002 C 
ENDBRANCH  53  87
ENDBRANCH  49  53
ENDBRANCH  48  51
BRANCH  48  90
ATOM     90  CB  SER A   5      86.297   6.783 129.821  0.00  0.00    +0.166 C 
BRANCH  90  91
ATOM     91  OG  SER A   5      86.237   6.980 128.409  0.00  0.00    -0.380 OA
ATOM     92  H   SER A   5      85.748   6.227 127.992  0.00  0.00    +0.211 HD
ENDBRANCH  90  91
ENDBRANCH  48  90
ENDBRANCH   1  48
TORSDOF 41
REMARK  Name = ../refined-set-2016/3upk/3upk_pocket.pdb
REMARK  243 active torsions:
REMARK  status: ('A' for Active; 'I' for Inactive)
REMARK    1  A    between atoms: _1  and  _3
REMARK    2  A    between atoms: _3  and  _4
REMARK    3  A    between atoms: _3  and  _6
REMARK    4  A    between atoms: _6  and  _7
REMARK    5  A    between atoms: _7  and  _8
REMARK    6  A    between atoms: _8  and  _9
REMARK    7  A    between atoms: _9  and  _10
REMARK    8  A    between atoms: _16  and  _17
REMARK    9  A    between atoms: _16  and  _19
REMARK   10  A    between atoms: _19  and  _20
REMARK   11  A    between atoms: _25  and  _27
REMARK   12  A    between atoms: _27  and  _28
REMARK   13  A    between atoms: _31  and  _33
REMARK   14  A    between atoms: _33  and  _34
REMARK   15  A    between atoms: _33  and  _36
REMARK   16  A    between atoms: _36  and  _37
REMARK   17  A    between atoms: _41  and  _42
REMARK   18  A    between atoms: _47  and  _49
REMARK   19  A    between atoms: _49  and  _50
REMARK   20  A    between atoms: _49  and  _52
REMARK   21  A    between atoms: _52  and  _53
REMARK   22  A    between atoms: _59  and  _61
REMARK   23  A    between atoms: _61  and  _62
REMARK   24  A    between atoms: _61  and  _64
REMARK   25  A    between atoms: _64  and  _65
REMARK   26  A    between atoms: _68  and  _70
REMARK   27  A    between atoms: _70  and  _71
REMARK   28  A    between atoms: _70  and  _73
REMARK   29  A    between atoms: _73  and  _74
REMARK   30  A    between atoms: _74  and  _75
REMARK   31  A    between atoms: _77  and  _79
REMARK   32  A    between atoms: _79  and  _80
REMARK   33  A    between atoms: _79  and  _82
REMARK   34  A    between atoms: _82  and  _83
REMARK   35  A    between atoms: _83  and  _84
REMARK   36  A    between atoms: _84  and  _85
REMARK   37  A    between atoms: _94  and  _96
REMARK   38  A    between atoms: _96  and  _97
REMARK   39  A    between atoms: _100  and  _102
REMARK   40  A    between atoms: _102  and  _103
REMARK   41  A    between atoms: _102  and  _105
REMARK   42  A    between atoms: _105  and  _106
REMARK   43  A    between atoms: _108  and  _110
REMARK   44  A    between atoms: _110  and  _111
REMARK   45  A    between atoms: _110  and  _113
REMARK   46  A    between atoms: _113  and  _114
REMARK   47  A    between atoms: _117  and  _119
REMARK   48  A    between atoms: _119  and  _120
REMARK   49  A    between atoms: _119  and  _122
REMARK   50  A    between atoms: _122  and  _123
REMARK   51  A    between atoms: _133  and  _135
REMARK   52  A    between atoms: _135  and  _136
REMARK   53  A    between atoms: _135  and  _138
REMARK   54  A    between atoms: _138  and  _139
REMARK   55  A    between atoms: _142  and  _144
REMARK   56  A    between atoms: _144  and  _145
REMARK   57  A    between atoms: _147  and  _149
REMARK   58  A    between atoms: _149  and  _150
REMARK   59  A    between atoms: _153  and  _155
REMARK   60  A    between atoms: _155  and  _156
REMARK   61  A    between atoms: _155  and  _158
REMARK   62  A    between atoms: _158  and  _159
REMARK   63  A    between atoms: _159  and  _160
REMARK   64  A    between atoms: _160  and  _161
REMARK   65  A    between atoms: _171  and  _172
REMARK   66  A    between atoms: _177  and  _179
REMARK   67  A    between atoms: _179  and  _180
REMARK   68  A    between atoms: _179  and  _182
REMARK   69  A    between atoms: _185  and  _187
REMARK   70  A    between atoms: _187  and  _188
REMARK   71  A    between atoms: _187  and  _190
REMARK   72  A    between atoms: _190  and  _191
REMARK   73  A    between atoms: _194  and  _196
REMARK   74  A    between atoms: _196  and  _197
REMARK   75  A    between atoms: _196  and  _199
REMARK   76  A    between atoms: _199  and  _200
REMARK   77  A    between atoms: _203  and  _205
REMARK   78  A    between atoms: _205  and  _206
REMARK   79  A    between atoms: _205  and  _208
REMARK   80  A    between atoms: _208  and  _209
REMARK   81  A    between atoms: _214  and  _216
REMARK   82  A    between atoms: _216  and  _217
REMARK   83  A    between atoms: _216  and  _219
REMARK   84  A    between atoms: _219  and  _220
REMARK   85  A    between atoms: _223  and  _225
REMARK   86  A    between atoms: _225  and  _226
REMARK   87  A    between atoms: _225  and  _228
REMARK   88  A    between atoms: _228  and  _229
REMARK   89  A    between atoms: _235  and  _237
REMARK   90  A    between atoms: _237  and  _238
REMARK   91  A    between atoms: _240  and  _242
REMARK   92  A    between atoms: _242  and  _243
REMARK   93  A    between atoms: _242  and  _245
REMARK   94  A    between atoms: _245  and  _246
REMARK   95  A    between atoms: _246  and  _247
REMARK   96  A    between atoms: _249  and  _251
REMARK   97  A    between atoms: _251  and  _252
REMARK   98  A    between atoms: _251  and  _254
REMARK   99  A    between atoms: _254  and  _255
REMARK  100  A    between atoms: _258  and  _260
REMARK  101  A    between atoms: _260  and  _261
REMARK  102  A    between atoms: _260  and  _263
REMARK  103  A    between atoms: _263  and  _264
REMARK  104  A    between atoms: _264  and  _265
REMARK  105  A    between atoms: _265  and  _266
REMARK  106  A    between atoms: _266  and  _267
REMARK  107  A    between atoms: _271  and  _273
REMARK  108  A    between atoms: _273  and  _274
REMARK  109  A    between atoms: _273  and  _276
REMARK  110  A    between atoms: _279  and  _281
REMARK  111  A    between atoms: _281  and  _282
REMARK  112  A    between atoms: _281  and  _284
REMARK  113  A    between atoms: _284  and  _285
REMARK  114  A    between atoms: _287  and  _289
REMARK  115  A    between atoms: _289  and  _290
REMARK  116  A    between atoms: _289  and  _292
REMARK  117  A    between atoms: _295  and  _297
REMARK  118  A    between atoms: _297  and  _298
REMARK  119  A    between atoms: _300  and  _302
REMARK  120  A    between atoms: _302  and  _303
REMARK  121  A    between atoms: _306  and  _308
REMARK  122  A    between atoms: _308  and  _309
REMARK  123  A    between atoms: _308  and  _311
REMARK  124  A    between atoms: _311  and  _312
REMARK  125  A    between atoms: _315  and  _317
REMARK  126  A    between atoms: _317  and  _318
REMARK  127  A    between atoms: _317  and  _320
REMARK  128  A    between atoms: _323  and  _325
REMARK  129  A    between atoms: _325  and  _326
REMARK  130  A    between atoms: _325  and  _328
REMARK  131  A    between atoms: _328  and  _329
REMARK  132  A    between atoms: _332  and  _334
REMARK  133  A    between atoms: _334  and  _335
REMARK  134  A    between atoms: _338  and  _340
REMARK  135  A    between atoms: _340  and  _341
REMARK  136  A    between atoms: _340  and  _343
REMARK  137  A    between atoms: _343  and  _344
REMARK  138  A    between atoms: _344  and  _345
REMARK  139  A    between atoms: _345  and  _346
REMARK  140  A    between atoms: _355  and  _357
REMARK  141  A    between atoms: _357  and  _358
REMARK  142  A    between atoms: _357  and  _360
REMARK  143  A    between atoms: _360  and  _361
REMARK  144  A    between atoms: _361  and  _362
REMARK  145  A    between atoms: _365  and  _367
REMARK  146  A    between atoms: _367  and  _368
REMARK  147  A    between atoms: _367  and  _370
REMARK  148  A    between atoms: _370  and  _371
REMARK  149  A    between atoms: _371  and  _372
REMARK  150  A    between atoms: _375  and  _377
REMARK  151  A    between atoms: _377  and  _378
REMARK  152  A    between atoms: _377  and  _380
REMARK  153  A    between atoms: _380  and  _381
REMARK  154  A    between atoms: _384  and  _386
REMARK  155  A    between atoms: _386  and  _387
REMARK  156  A    between atoms: _386  and  _389
REMARK  157  A    between atoms: _389  and  _390
REMARK  158  A    between atoms: _390  and  _391
REMARK  159  A    between atoms: _391  and  _392
REMARK  160  A    between atoms: _401  and  _403
REMARK  161  A    between atoms: _403  and  _404
REMARK  162  A    between atoms: _403  and  _406
REMARK  163  A    between atoms: _406  and  _407
REMARK  164  A    between atoms: _410  and  _412
REMARK  165  A    between atoms: _412  and  _413
REMARK  166  A    between atoms: _412  and  _415
REMARK  167  A    between atoms: _415  and  _416
REMARK  168  A    between atoms: _419  and  _421
REMARK  169  A    between atoms: _421  and  _422
REMARK  170  A    between atoms: _426  and  _427
REMARK  171  A    between atoms: _432  and  _434
REMARK  172  A    between atoms: _434  and  _435
REMARK  173  A    between atoms: _434  and  _437
REMARK  174  A    between atoms: _437  and  _438
REMARK  175  A    between atoms: _443  and  _445
REMARK  176  A    between atoms: _445  and  _446
REMARK  177  A    between atoms: _445  and  _448
REMARK  178  A    between atoms: _448  and  _449
REMARK  179  A    between atoms: _456  and  _457
REMARK  180  A    between atoms: _462  and  _464
REMARK  181  A    between atoms: _464  and  _465
REMARK  182  A    between atoms: _464  and  _467
REMARK  183  A    between atoms: _467  and  _468
REMARK  184  A    between atoms: _471  and  _473
REMARK  185  A    between atoms: _473  and  _474
REMARK  186  A    between atoms: _473  and  _476
REMARK  187  A    between atoms: _476  and  _477
REMARK  188  A    between atoms: _480  and  _482
REMARK  189  A    between atoms: _482  and  _483
REMARK  190  A    between atoms: _482  and  _485
REMARK  191  A    between atoms: _485  and  _486
REMARK  192  A    between atoms: _486  and  _487
REMARK  193  A    between atoms: _489  and  _491
REMARK  194  A    between atoms: _491  and  _492
REMARK  195  A    between atoms: _491  and  _494
REMARK  196  A    between atoms: _494  and  _495
REMARK  197  A    between atoms: _495  and  _496
REMARK  198  A    between atoms: _501  and  _503
REMARK  199  A    between atoms: _503  and  _504
REMARK  200  A    between atoms: _503  and  _506
REMARK  201  A    between atoms: _506  and  _507
REMARK  202  A    between atoms: _507  and  _508
REMARK  203  A    between atoms: _511  and  _513
REMARK  204  A    between atoms: _513  and  _514
REMARK  205  A    between atoms: _513  and  _516
REMARK  206  A    between atoms: _516  and  _517
REMARK  207  A    between atoms: _520  and  _522
REMARK  208  A    between atoms: _522  and  _523
REMARK  209  A    between atoms: _522  and  _525
REMARK  210  A    between atoms: _525  and  _526
REMARK  211  A    between atoms: _529  and  _531
REMARK  212  A    between atoms: _531  and  _532
REMARK  213  A    between atoms: _531  and  _534
REMARK  214  A    between atoms: _534  and  _535
REMARK  215  A    between atoms: _543  and  _544
REMARK  216  A    between atoms: _543  and  _546
REMARK  217  A    between atoms: _546  and  _547
REMARK  218  A    between atoms: _547  and  _548
REMARK  219  A    between atoms: _551  and  _553
REMARK  220  A    between atoms: _553  and  _554
REMARK  221  A    between atoms: _553  and  _556
REMARK  222  A    between atoms: _556  and  _557
REMARK  223  A    between atoms: _562  and  _564
REMARK  224  A    between atoms: _564  and  _565
REMARK  225  A    between atoms: _564  and  _567
REMARK  226  A    between atoms: _567  and  _568
REMARK  227  A    between atoms: _568  and  _569
REMARK  228  A    between atoms: _569  and  _570
REMARK  229  A    between atoms: _579  and  _581
REMARK  230  A    between atoms: _581  and  _582
REMARK  231  A    between atoms: _581  and  _584
REMARK  232  A    between atoms: _584  and  _585
REMARK  233  A    between atoms: _590  and  _591
REMARK  234  A    between atoms: _590  and  _593
REMARK  235  A    between atoms: _593  and  _594
REMARK  236  A    between atoms: _597  and  _599
REMARK  237  A    between atoms: _599  and  _600
REMARK  238  A    between atoms: _599  and  _602
REMARK  239  A    between atoms: _602  and  _603
REMARK  240  A    between atoms: _603  and  _604
REMARK  241  A    between atoms: _604  and  _605
REMARK  242  A    between atoms: _614  and  _616
REMARK  243  A    between atoms: _616  and  _617
REMARK                            x       y       z     vdW  Elec       q    Type
REMARK                         _______ _______ _______ _____ _____    ______ ____
ROOT
ATOM      1  CA  ARG A   2      94.082   0.201 132.249  0.00  0.00    +0.149 C 
ENDROOT
BRANCH   1   3
ATOM      2  C   ALA A   1      92.917   2.340 131.930  0.00  0.00    +0.238 C 
ATOM      3  N   ARG A   2      92.901   1.053 132.220  0.00  0.00    -0.297 N 
ATOM      4  H   ARG A   2      91.983   0.618 132.443  0.00  0.00    +0.150 HD
ATOM      5  O   ALA A   1      93.960   2.908 131.574  0.00  0.00    -0.274 OA
BRANCH   2   6
ATOM      6  CA  ALA A   1      91.596   3.123 132.015  0.00  0.00    +0.145 C 
ATOM      7  CB  ALA A   1      90.877   3.113 130.656  0.00  0.00    +0.028 C 
BRANCH   6   8
ATOM      8  N   ALA A   1      91.979   4.485 132.393  0.00  0.00    -0.238 NA
ATOM      9  H   ALA A   1      91.910   5.253 131.696  0.00  0.00    +0.142 HD
ENDBRANCH   6   8
ENDBRANCH   2   6
ENDBRANCH   1   3
BRANCH   1  10
ATOM     10  C   ARG A   2      94.159  -0.863 131.106  0.00  0.00    +0.241 C 
ATOM     11  O   ARG A   2      95.056  -1.640 131.058  0.00  0.00    -0.273 OA
ATOM     12  N   GLU A   3      93.199  -0.858 130.213  0.00  0.00    -0.298 N 
ATOM     13  H   GLU A   3      92.423  -0.174 130.323  0.00  0.00    +0.150 HD
BRANCH  12  14
ATOM     14  CA  GLU A   3      93.168  -1.768 129.071  0.00  0.00    +0.137 C 
BRANCH  14  15
ATOM     15  C   GLU A   3      94.511  -1.975 128.374  0.00  0.00    +0.227 C 
ATOM     16  O   GLU A   3      95.299  -1.046 128.244  0.00  0.00    -0.286 OA
ENDBRANCH  14  15
BRANCH  14  17
ATOM     17  CB  GLU A   3      92.023  -1.462 128.091  0.00  0.00    +0.039 C 
BRANCH  17  18
ATOM     18  CG  GLU A   3      90.671  -2.101 128.405  0.00  0.00    +0.116 C 
BRANCH  18  19
ATOM     19  CD  GLU A   3      89.984  -1.570 129.660  0.00  0.00    +0.365 C 
ATOM     20  OE2 GLU A   3      90.486  -0.599 130.277  0.00  0.00    -0.246 OA
ATOM     21  OE1 GLU A   3      88.916  -2.137 130.016  0.00  0.00    -0.246 OA
ENDBRANCH  18  19
ENDBRANCH  17  18
ENDBRANCH  14  17
ENDBRANCH  12  14
ENDBRANCH   1  10
BRANCH   1  22
ATOM     22  CB  ARG A   2      94.228  -0.484 133.632  0.00  0.00    +0.033 C 
BRANCH  22  23
ATOM     23  CG  ARG A   2      94.405   0.433 134.789  0.00  0.00    +0.045 C 
BRANCH  23  24
ATOM     24  CD  ARG A   2      93.124   0.601 135.552  0.00  0.00    +0.174 C 
BRANCH  24  25
ATOM     25  NE  ARG A   2      92.644  -0.652 136.090  0.00  0.00    -0.265 N 
ATOM     26  CZ  ARG A   2      91.446  -0.874 136.582  0.00  0.00    +0.342 C 
ATOM     27  NH2 ARG A   2      91.164  -2.067 137.019  0.00  0.00    -0.292 N 
ATOM     28 HH21 ARG A   2      90.223  -2.267 137.413  0.00  0.00    +0.255 HD
ATOM     29 HH22 ARG A   2      91.880  -2.820 136.974  0.00  0.00    +0.255 HD
ATOM     30  NH1 ARG A   2      90.515   0.073 136.622  0.00  0.00    -0.292 N 
ATOM     31 HH11 ARG A   2      89.577  -0.137 137.018  0.00  0.00    +0.255 HD
ATOM     32 HH12 ARG A   2      90.725   1.024 136.257  0.00  0.00    +0.255 HD
ATOM     33  HE  ARG A   2      93.309  -1.452 136.087  0.00  0.00    +0.259 HD
ENDBRANCH  24  25
ENDBRANCH  23  24
ENDBRANCH  22  23
ENDBRANCH   1  22
TORSDOF 13
REMARK  Name = ../refined-set-2016/3upk/3upk_pocket.pdb
REMARK  243 active torsions:
REMARK  status: ('A' for Active; 'I' for Inactive)
REMARK    1  A    between atoms: _1  and  _3
REMARK    2  A    between atoms: _3  and  _4
REMARK    3  A    between atoms: _3  and  _6
REMARK    4  A    between atoms: _6  and  _7
REMARK    5  A    between atoms: _7  and  _8
REMARK    6  A    between atoms: _8  and  _9
REMARK    7  A    between atoms: _9  and  _10
REMARK    8  A    between atoms: _16  and  _17
REMARK    9  A    between atoms: _16  and  _19
REMARK   10  A    between atoms: _19  and  _20
REMARK   11  A    between atoms: _25  and  _27
REMARK   12  A    between atoms: _27  and  _28
REMARK   13  A    between atoms: _31  and  _33
REMARK   14  A    between atoms: _33  and  _34
REMARK   15  A    between atoms: _33  and  _36
REMARK   16  A    between atoms: _36  and  _37
REMARK   17  A    between atoms: _41  and  _42
REMARK   18  A    between atoms: _47  and  _49
REMARK   19  A    between atoms: _49  and  _50
REMARK   20  A    between atoms: _49  and  _52
REMARK   21  A    between atoms: _52  and  _53
REMARK   22  A    between atoms: _59  and  _61
REMARK   23  A    between atoms: _61  and  _62
REMARK   24  A    between atoms: _61  and  _64
REMARK   25  A    between atoms: _64  and  _65
REMARK   26  A    between atoms: _68  and  _70
REMARK   27  A    between atoms: _70  and  _71
REMARK   28  A    between atoms: _70  and  _73
REMARK   29  A    between atoms: _73  and  _74
REMARK   30  A    between atoms: _74  and  _75
REMARK   31  A    between atoms: _77  and  _79
REMARK   32  A    between atoms: _79  and  _80
REMARK   33  A    between atoms: _79  and  _82
REMARK   34  A    between atoms: _82  and  _83
REMARK   35  A    between atoms: _83  and  _84
REMARK   36  A    between atoms: _84  and  _85
REMARK   37  A    between atoms: _94  and  _96
REMARK   38  A    between atoms: _96  and  _97
REMARK   39  A    between atoms: _100  and  _102
REMARK   40  A    between atoms: _102  and  _103
REMARK   41  A    between atoms: _102  and  _105
REMARK   42  A    between atoms: _105  and  _106
REMARK   43  A    between atoms: _108  and  _110
REMARK   44  A    between atoms: _110  and  _111
REMARK   45  A    between atoms: _110  and  _113
REMARK   46  A    between atoms: _113  and  _114
REMARK   47  A    between atoms: _117  and  _119
REMARK   48  A    between atoms: _119  and  _120
REMARK   49  A    between atoms: _119  and  _122
REMARK   50  A    between atoms: _122  and  _123
REMARK   51  A    between atoms: _133  and  _135
REMARK   52  A    between atoms: _135  and  _136
REMARK   53  A    between atoms: _135  and  _138
REMARK   54  A    between atoms: _138  and  _139
REMARK   55  A    between atoms: _142  and  _144
REMARK   56  A    between atoms: _144  and  _145
REMARK   57  A    between atoms: _147  and  _149
REMARK   58  A    between atoms: _149  and  _150
REMARK   59  A    between atoms: _153  and  _155
REMARK   60  A    between atoms: _155  and  _156
REMARK   61  A    between atoms: _155  and  _158
REMARK   62  A    between atoms: _158  and  _159
REMARK   63  A    between atoms: _159  and  _160
REMARK   64  A    between atoms: _160  and  _161
REMARK   65  A    between atoms: _171  and  _172
REMARK   66  A    between atoms: _177  and  _179
REMARK   67  A    between atoms: _179  and  _180
REMARK   68  A    between atoms: _179  and  _182
REMARK   69  A    between atoms: _185  and  _187
REMARK   70  A    between atoms: _187  and  _188
REMARK   71  A    between atoms: _187  and  _190
REMARK   72  A    between atoms: _190  and  _191
REMARK   73  A    between atoms: _194  and  _196
REMARK   74  A    between atoms: _196  and  _197
REMARK   75  A    between atoms: _196  and  _199
REMARK   76  A    between atoms: _199  and  _200
REMARK   77  A    between atoms: _203  and  _205
REMARK   78  A    between atoms: _205  and  _206
REMARK   79  A    between atoms: _205  and  _208
REMARK   80  A    between atoms: _208  and  _209
REMARK   81  A    between atoms: _214  and  _216
REMARK   82  A    between atoms: _216  and  _217
REMARK   83  A    between atoms: _216  and  _219
REMARK   84  A    between atoms: _219  and  _220
REMARK   85  A    between atoms: _223  and  _225
REMARK   86  A    between atoms: _225  and  _226
REMARK   87  A    between atoms: _225  and  _228
REMARK   88  A    between atoms: _228  and  _229
REMARK   89  A    between atoms: _235  and  _237
REMARK   90  A    between atoms: _237  and  _238
REMARK   91  A    between atoms: _240  and  _242
REMARK   92  A    between atoms: _242  and  _243
REMARK   93  A    between atoms: _242  and  _245
REMARK   94  A    between atoms: _245  and  _246
REMARK   95  A    between atoms: _246  and  _247
REMARK   96  A    between atoms: _249  and  _251
REMARK   97  A    between atoms: _251  and  _252
REMARK   98  A    between atoms: _251  and  _254
REMARK   99  A    between atoms: _254  and  _255
REMARK  100  A    between atoms: _258  and  _260
REMARK  101  A    between atoms: _260  and  _261
REMARK  102  A    between atoms: _260  and  _263
REMARK  103  A    between atoms: _263  and  _264
REMARK  104  A    between atoms: _264  and  _265
REMARK  105  A    between atoms: _265  and  _266
REMARK  106  A    between atoms: _266  and  _267
REMARK  107  A    between atoms: _271  and  _273
REMARK  108  A    between atoms: _273  and  _274
REMARK  109  A    between atoms: _273  and  _276
REMARK  110  A    between atoms: _279  and  _281
REMARK  111  A    between atoms: _281  and  _282
REMARK  112  A    between atoms: _281  and  _284
REMARK  113  A    between atoms: _284  and  _285
REMARK  114  A    between atoms: _287  and  _289
REMARK  115  A    between atoms: _289  and  _290
REMARK  116  A    between atoms: _289  and  _292
REMARK  117  A    between atoms: _295  and  _297
REMARK  118  A    between atoms: _297  and  _298
REMARK  119  A    between atoms: _300  and  _302
REMARK  120  A    between atoms: _302  and  _303
REMARK  121  A    between atoms: _306  and  _308
REMARK  122  A    between atoms: _308  and  _309
REMARK  123  A    between atoms: _308  and  _311
REMARK  124  A    between atoms: _311  and  _312
REMARK  125  A    between atoms: _315  and  _317
REMARK  126  A    between atoms: _317  and  _318
REMARK  127  A    between atoms: _317  and  _320
REMARK  128  A    between atoms: _323  and  _325
REMARK  129  A    between atoms: _325  and  _326
REMARK  130  A    between atoms: _325  and  _328
REMARK  131  A    between atoms: _328  and  _329
REMARK  132  A    between atoms: _332  and  _334
REMARK  133  A    between atoms: _334  and  _335
REMARK  134  A    between atoms: _338  and  _340
REMARK  135  A    between atoms: _340  and  _341
REMARK  136  A    between atoms: _340  and  _343
REMARK  137  A    between atoms: _343  and  _344
REMARK  138  A    between atoms: _344  and  _345
REMARK  139  A    between atoms: _345  and  _346
REMARK  140  A    between atoms: _355  and  _357
REMARK  141  A    between atoms: _357  and  _358
REMARK  142  A    between atoms: _357  and  _360
REMARK  143  A    between atoms: _360  and  _361
REMARK  144  A    between atoms: _361  and  _362
REMARK  145  A    between atoms: _365  and  _367
REMARK  146  A    between atoms: _367  and  _368
REMARK  147  A    between atoms: _367  and  _370
REMARK  148  A    between atoms: _370  and  _371
REMARK  149  A    between atoms: _371  and  _372
REMARK  150  A    between atoms: _375  and  _377
REMARK  151  A    between atoms: _377  and  _378
REMARK  152  A    between atoms: _377  and  _380
REMARK  153  A    between atoms: _380  and  _381
REMARK  154  A    between atoms: _384  and  _386
REMARK  155  A    between atoms: _386  and  _387
REMARK  156  A    between atoms: _386  and  _389
REMARK  157  A    between atoms: _389  and  _390
REMARK  158  A    between atoms: _390  and  _391
REMARK  159  A    between atoms: _391  and  _392
REMARK  160  A    between atoms: _401  and  _403
REMARK  161  A    between atoms: _403  and  _404
REMARK  162  A    between atoms: _403  and  _406
REMARK  163  A    between atoms: _406  and  _407
REMARK  164  A    between atoms: _410  and  _412
REMARK  165  A    between atoms: _412  and  _413
REMARK  166  A    between atoms: _412  and  _415
REMARK  167  A    between atoms: _415  and  _416
REMARK  168  A    between atoms: _419  and  _421
REMARK  169  A    between atoms: _421  and  _422
REMARK  170  A    between atoms: _426  and  _427
REMARK  171  A    between atoms: _432  and  _434
REMARK  172  A    between atoms: _434  and  _435
REMARK  173  A    between atoms: _434  and  _437
REMARK  174  A    between atoms: _437  and  _438
REMARK  175  A    between atoms: _443  and  _445
REMARK  176  A    between atoms: _445  and  _446
REMARK  177  A    between atoms: _445  and  _448
REMARK  178  A    between atoms: _448  and  _449
REMARK  179  A    between atoms: _456  and  _457
REMARK  180  A    between atoms: _462  and  _464
REMARK  181  A    between atoms: _464  and  _465
REMARK  182  A    between atoms: _464  and  _467
REMARK  183  A    between atoms: _467  and  _468
REMARK  184  A    between atoms: _471  and  _473
REMARK  185  A    between atoms: _473  and  _474
REMARK  186  A    between atoms: _473  and  _476
REMARK  187  A    between atoms: _476  and  _477
REMARK  188  A    between atoms: _480  and  _482
REMARK  189  A    between atoms: _482  and  _483
REMARK  190  A    between atoms: _482  and  _485
REMARK  191  A    between atoms: _485  and  _486
REMARK  192  A    between atoms: _486  and  _487
REMARK  193  A    between atoms: _489  and  _491
REMARK  194  A    between atoms: _491  and  _492
REMARK  195  A    between atoms: _491  and  _494
REMARK  196  A    between atoms: _494  and  _495
REMARK  197  A    between atoms: _495  and  _496
REMARK  198  A    between atoms: _501  and  _503
REMARK  199  A    between atoms: _503  and  _504
REMARK  200  A    between atoms: _503  and  _506
REMARK  201  A    between atoms: _506  and  _507
REMARK  202  A    between atoms: _507  and  _508
REMARK  203  A    between atoms: _511  and  _513
REMARK  204  A    between atoms: _513  and  _514
REMARK  205  A    between atoms: _513  and  _516
REMARK  206  A    between atoms: _516  and  _517
REMARK  207  A    between atoms: _520  and  _522
REMARK  208  A    between atoms: _522  and  _523
REMARK  209  A    between atoms: _522  and  _525
REMARK  210  A    between atoms: _525  and  _526
REMARK  211  A    between atoms: _529  and  _531
REMARK  212  A    between atoms: _531  and  _532
REMARK  213  A    between atoms: _531  and  _534
REMARK  214  A    between atoms: _534  and  _535
REMARK  215  A    between atoms: _543  and  _544
REMARK  216  A    between atoms: _543  and  _546
REMARK  217  A    between atoms: _546  and  _547
REMARK  218  A    between atoms: _547  and  _548
REMARK  219  A    between atoms: _551  and  _553
REMARK  220  A    between atoms: _553  and  _554
REMARK  221  A    between atoms: _553  and  _556
REMARK  222  A    between atoms: _556  and  _557
REMARK  223  A    between atoms: _562  and  _564
REMARK  224  A    between atoms: _564  and  _565
REMARK  225  A    between atoms: _564  and  _567
REMARK  226  A    between atoms: _567  and  _568
REMARK  227  A    between atoms: _568  and  _569
REMARK  228  A    between atoms: _569  and  _570
REMARK  229  A    between atoms: _579  and  _581
REMARK  230  A    between atoms: _581  and  _582
REMARK  231  A    between atoms: _581  and  _584
REMARK  232  A    between atoms: _584  and  _585
REMARK  233  A    between atoms: _590  and  _591
REMARK  234  A    between atoms: _590  and  _593
REMARK  235  A    between atoms: _593  and  _594
REMARK  236  A    between atoms: _597  and  _599
REMARK  237  A    between atoms: _599  and  _600
REMARK  238  A    between atoms: _599  and  _602
REMARK  239  A    between atoms: _602  and  _603
REMARK  240  A    between atoms: _603  and  _604
REMARK  241  A    between atoms: _604  and  _605
REMARK  242  A    between atoms: _614  and  _616
REMARK  243  A    between atoms: _616  and  _617
REMARK                            x       y       z     vdW  Elec       q    Type
REMARK                         _______ _______ _______ _____ _____    ______ ____
ROOT
ATOM      1  C   GLU A   1      95.700   0.129 124.633  0.00  0.00    +0.238 C 
ATOM      2  N   ILE A   2      95.540   0.492 125.901  0.00  0.00    -0.298 N 
ATOM      3  H   ILE A   2      95.048  -0.157 126.547  0.00  0.00    +0.150 HD
ATOM      4  O   GLU A   1      96.248   0.847 123.783  0.00  0.00    -0.274 OA
ENDROOT
BRANCH   1   5
ATOM      5  CA  GLU A   1      95.146  -1.259 124.269  0.00  0.00    +0.145 C 
BRANCH   5   6
ATOM      6  N   GLU A   1      95.094  -2.142 125.432  0.00  0.00    -0.238 NA
ATOM      7  H   GLU A   1      94.173  -2.436 125.816  0.00  0.00    +0.142 HD
ENDBRANCH   5   6
BRANCH   5   8
ATOM      8  CB  GLU A   1      93.843  -1.205 123.468  0.00  0.00    +0.038 C 
BRANCH   8   9
ATOM      9  CG  GLU A   1      93.356  -2.535 122.913  0.00  0.00    +0.116 C 
BRANCH   9  10
ATOM     10  CD  GLU A   1      92.817  -3.484 123.983  0.00  0.00    +0.365 C 
ATOM     11  OE2 GLU A   1      92.457  -3.016 125.098  0.00  0.00    -0.246 OA
ATOM     12  OE1 GLU A   1      92.742  -4.702 123.693  0.00  0.00    -0.246 OA
ENDBRANCH   9  10
ENDBRANCH   8   9
ENDBRANCH   5   8
ENDBRANCH   1   5
BRANCH   2  13
ATOM     13  CA  ILE A   2      96.029   1.771 126.427  0.00  0.00    +0.137 C 
BRANCH  13  14
ATOM     14  CB  ILE A   2      95.432   2.055 127.839  0.00  0.00    +0.026 C 
ATOM     15  CG2 ILE A   2      96.027   3.334 128.429  0.00  0.00    +0.002 C 
BRANCH  14  16
ATOM     16  CG1 ILE A   2      93.900   2.128 127.751  0.00  0.00    +0.002 C 
ATOM     17  CD1 ILE A   2      93.365   3.236 126.883  0.00  0.00    +0.000 C 
ENDBRANCH  14  16
ENDBRANCH  13  14
BRANCH  13  18
ATOM     18  C   ILE A   2      97.549   1.679 126.537  0.00  0.00    +0.227 C 
ATOM     19  O   ILE A   2      98.266   2.621 126.214  0.00  0.00    -0.286 OA
ENDBRANCH  13  18
ENDBRANCH   2  13
TORSDOF 9
REMARK  Name = ../refined-set-2016/3upk/3upk_pocket.pdb
REMARK  243 active torsions:
REMARK  status: ('A' for Active; 'I' for Inactive)
REMARK    1  A    between atoms: _1  and  _3
REMARK    2  A    between atoms: _3  and  _4
REMARK    3  A    between atoms: _3  and  _6
REMARK    4  A    between atoms: _6  and  _7
REMARK    5  A    between atoms: _7  and  _8
REMARK    6  A    between atoms: _8  and  _9
REMARK    7  A    between atoms: _9  and  _10
REMARK    8  A    between atoms: _16  and  _17
REMARK    9  A    between atoms: _16  and  _19
REMARK   10  A    between atoms: _19  and  _20
REMARK   11  A    between atoms: _25  and  _27
REMARK   12  A    between atoms: _27  and  _28
REMARK   13  A    between atoms: _31  and  _33
REMARK   14  A    between atoms: _33  and  _34
REMARK   15  A    between atoms: _33  and  _36
REMARK   16  A    between atoms: _36  and  _37
REMARK   17  A    between atoms: _41  and  _42
REMARK   18  A    between atoms: _47  and  _49
REMARK   19  A    between atoms: _49  and  _50
REMARK   20  A    between atoms: _49  and  _52
REMARK   21  A    between atoms: _52  and  _53
REMARK   22  A    between atoms: _59  and  _61
REMARK   23  A    between atoms: _61  and  _62
REMARK   24  A    between atoms: _61  and  _64
REMARK   25  A    between atoms: _64  and  _65
REMARK   26  A    between atoms: _68  and  _70
REMARK   27  A    between atoms: _70  and  _71
REMARK   28  A    between atoms: _70  and  _73
REMARK   29  A    between atoms: _73  and  _74
REMARK   30  A    between atoms: _74  and  _75
REMARK   31  A    between atoms: _77  and  _79
REMARK   32  A    between atoms: _79  and  _80
REMARK   33  A    between atoms: _79  and  _82
REMARK   34  A    between atoms: _82  and  _83
REMARK   35  A    between atoms: _83  and  _84
REMARK   36  A    between atoms: _84  and  _85
REMARK   37  A    between atoms: _94  and  _96
REMARK   38  A    between atoms: _96  and  _97
REMARK   39  A    between atoms: _100  and  _102
REMARK   40  A    between atoms: _102  and  _103
REMARK   41  A    between atoms: _102  and  _105
REMARK   42  A    between atoms: _105  and  _106
REMARK   43  A    between atoms: _108  and  _110
REMARK   44  A    between atoms: _110  and  _111
REMARK   45  A    between atoms: _110  and  _113
REMARK   46  A    between atoms: _113  and  _114
REMARK   47  A    between atoms: _117  and  _119
REMARK   48  A    between atoms: _119  and  _120
REMARK   49  A    between atoms: _119  and  _122
REMARK   50  A    between atoms: _122  and  _123
REMARK   51  A    between atoms: _133  and  _135
REMARK   52  A    between atoms: _135  and  _136
REMARK   53  A    between atoms: _135  and  _138
REMARK   54  A    between atoms: _138  and  _139
REMARK   55  A    between atoms: _142  and  _144
REMARK   56  A    between atoms: _144  and  _145
REMARK   57  A    between atoms: _147  and  _149
REMARK   58  A    between atoms: _149  and  _150
REMARK   59  A    between atoms: _153  and  _155
REMARK   60  A    between atoms: _155  and  _156
REMARK   61  A    between atoms: _155  and  _158
REMARK   62  A    between atoms: _158  and  _159
REMARK   63  A    between atoms: _159  and  _160
REMARK   64  A    between atoms: _160  and  _161
REMARK   65  A    between atoms: _171  and  _172
REMARK   66  A    between atoms: _177  and  _179
REMARK   67  A    between atoms: _179  and  _180
REMARK   68  A    between atoms: _179  and  _182
REMARK   69  A    between atoms: _185  and  _187
REMARK   70  A    between atoms: _187  and  _188
REMARK   71  A    between atoms: _187  and  _190
REMARK   72  A    between atoms: _190  and  _191
REMARK   73  A    between atoms: _194  and  _196
REMARK   74  A    between atoms: _196  and  _197
REMARK   75  A    between atoms: _196  and  _199
REMARK   76  A    between atoms: _199  and  _200
REMARK   77  A    between atoms: _203  and  _205
REMARK   78  A    between atoms: _205  and  _206
REMARK   79  A    between atoms: _205  and  _208
REMARK   80  A    between atoms: _208  and  _209
REMARK   81  A    between atoms: _214  and  _216
REMARK   82  A    between atoms: _216  and  _217
REMARK   83  A    between atoms: _216  and  _219
REMARK   84  A    between atoms: _219  and  _220
REMARK   85  A    between atoms: _223  and  _225
REMARK   86  A    between atoms: _225  and  _226
REMARK   87  A    between atoms: _225  and  _228
REMARK   88  A    between atoms: _228  and  _229
REMARK   89  A    between atoms: _235  and  _237
REMARK   90  A    between atoms: _237  and  _238
REMARK   91  A    between atoms: _240  and  _242
REMARK   92  A    between atoms: _242  and  _243
REMARK   93  A    between atoms: _242  and  _245
REMARK   94  A    between atoms: _245  and  _246
REMARK   95  A    between atoms: _246  and  _247
REMARK   96  A    between atoms: _249  and  _251
REMARK   97  A    between atoms: _251  and  _252
REMARK   98  A    between atoms: _251  and  _254
REMARK   99  A    between atoms: _254  and  _255
REMARK  100  A    between atoms: _258  and  _260
REMARK  101  A    between atoms: _260  and  _261
REMARK  102  A    between atoms: _260  and  _263
REMARK  103  A    between atoms: _263  and  _264
REMARK  104  A    between atoms: _264  and  _265
REMARK  105  A    between atoms: _265  and  _266
REMARK  106  A    between atoms: _266  and  _267
REMARK  107  A    between atoms: _271  and  _273
REMARK  108  A    between atoms: _273  and  _274
REMARK  109  A    between atoms: _273  and  _276
REMARK  110  A    between atoms: _279  and  _281
REMARK  111  A    between atoms: _281  and  _282
REMARK  112  A    between atoms: _281  and  _284
REMARK  113  A    between atoms: _284  and  _285
REMARK  114  A    between atoms: _287  and  _289
REMARK  115  A    between atoms: _289  and  _290
REMARK  116  A    between atoms: _289  and  _292
REMARK  117  A    between atoms: _295  and  _297
REMARK  118  A    between atoms: _297  and  _298
REMARK  119  A    between atoms: _300  and  _302
REMARK  120  A    between atoms: _302  and  _303
REMARK  121  A    between atoms: _306  and  _308
REMARK  122  A    between atoms: _308  and  _309
REMARK  123  A    between atoms: _308  and  _311
REMARK  124  A    between atoms: _311  and  _312
REMARK  125  A    between atoms: _315  and  _317
REMARK  126  A    between atoms: _317  and  _318
REMARK  127  A    between atoms: _317  and  _320
REMARK  128  A    between atoms: _323  and  _325
REMARK  129  A    between atoms: _325  and  _326
REMARK  130  A    between atoms: _325  and  _328
REMARK  131  A    between atoms: _328  and  _329
REMARK  132  A    between atoms: _332  and  _334
REMARK  133  A    between atoms: _334  and  _335
REMARK  134  A    between atoms: _338  and  _340
REMARK  135  A    between atoms: _340  and  _341
REMARK  136  A    between atoms: _340  and  _343
REMARK  137  A    between atoms: _343  and  _344
REMARK  138  A    between atoms: _344  and  _345
REMARK  139  A    between atoms: _345  and  _346
REMARK  140  A    between atoms: _355  and  _357
REMARK  141  A    between atoms: _357  and  _358
REMARK  142  A    between atoms: _357  and  _360
REMARK  143  A    between atoms: _360  and  _361
REMARK  144  A    between atoms: _361  and  _362
REMARK  145  A    between atoms: _365  and  _367
REMARK  146  A    between atoms: _367  and  _368
REMARK  147  A    between atoms: _367  and  _370
REMARK  148  A    between atoms: _370  and  _371
REMARK  149  A    between atoms: _371  and  _372
REMARK  150  A    between atoms: _375  and  _377
REMARK  151  A    between atoms: _377  and  _378
REMARK  152  A    between atoms: _377  and  _380
REMARK  153  A    between atoms: _380  and  _381
REMARK  154  A    between atoms: _384  and  _386
REMARK  155  A    between atoms: _386  and  _387
REMARK  156  A    between atoms: _386  and  _389
REMARK  157  A    between atoms: _389  and  _390
REMARK  158  A    between atoms: _390  and  _391
REMARK  159  A    between atoms: _391  and  _392
REMARK  160  A    between atoms: _401  and  _403
REMARK  161  A    between atoms: _403  and  _404
REMARK  162  A    between atoms: _403  and  _406
REMARK  163  A    between atoms: _406  and  _407
REMARK  164  A    between atoms: _410  and  _412
REMARK  165  A    between atoms: _412  and  _413
REMARK  166  A    between atoms: _412  and  _415
REMARK  167  A    between atoms: _415  and  _416
REMARK  168  A    between atoms: _419  and  _421
REMARK  169  A    between atoms: _421  and  _422
REMARK  170  A    between atoms: _426  and  _427
REMARK  171  A    between atoms: _432  and  _434
REMARK  172  A    between atoms: _434  and  _435
REMARK  173  A    between atoms: _434  and  _437
REMARK  174  A    between atoms: _437  and  _438
REMARK  175  A    between atoms: _443  and  _445
REMARK  176  A    between atoms: _445  and  _446
REMARK  177  A    between atoms: _445  and  _448
REMARK  178  A    between atoms: _448  and  _449
REMARK  179  A    between atoms: _456  and  _457
REMARK  180  A    between atoms: _462  and  _464
REMARK  181  A    between atoms: _464  and  _465
REMARK  182  A    between atoms: _464  and  _467
REMARK  183  A    between atoms: _467  and  _468
REMARK  184  A    between atoms: _471  and  _473
REMARK  185  A    between atoms: _473  and  _474
REMARK  186  A    between atoms: _473  and  _476
REMARK  187  A    between atoms: _476  and  _477
REMARK  188  A    between atoms: _480  and  _482
REMARK  189  A    between atoms: _482  and  _483
REMARK  190  A    between atoms: _482  and  _485
REMARK  191  A    between atoms: _485  and  _486
REMARK  192  A    between atoms: _486  and  _487
REMARK  193  A    between atoms: _489  and  _491
REMARK  194  A    between atoms: _491  and  _492
REMARK  195  A    between atoms: _491  and  _494
REMARK  196  A    between atoms: _494  and  _495
REMARK  197  A    between atoms: _495  and  _496
REMARK  198  A    between atoms: _501  and  _503
REMARK  199  A    between atoms: _503  and  _504
REMARK  200  A    between atoms: _503  and  _506
REMARK  201  A    between atoms: _506  and  _507
REMARK  202  A    between atoms: _507  and  _508
REMARK  203  A    between atoms: _511  and  _513
REMARK  204  A    between atoms: _513  and  _514
REMARK  205  A    between atoms: _513  and  _516
REMARK  206  A    between atoms: _516  and  _517
REMARK  207  A    between atoms: _520  and  _522
REMARK  208  A    between atoms: _522  and  _523
REMARK  209  A    between atoms: _522  and  _525
REMARK  210  A    between atoms: _525  and  _526
REMARK  211  A    between atoms: _529  and  _531
REMARK  212  A    between atoms: _531  and  _532
REMARK  213  A    between atoms: _531  and  _534
REMARK  214  A    between atoms: _534  and  _535
REMARK  215  A    between atoms: _543  and  _544
REMARK  216  A    between atoms: _543  and  _546
REMARK  217  A    between atoms: _546  and  _547
REMARK  218  A    between atoms: _547  and  _548
REMARK  219  A    between atoms: _551  and  _553
REMARK  220  A    between atoms: _553  and  _554
REMARK  221  A    between atoms: _553  and  _556
REMARK  222  A    between atoms: _556  and  _557
REMARK  223  A    between atoms: _562  and  _564
REMARK  224  A    between atoms: _564  and  _565
REMARK  225  A    between atoms: _564  and  _567
REMARK  226  A    between atoms: _567  and  _568
REMARK  227  A    between atoms: _568  and  _569
REMARK  228  A    between atoms: _569  and  _570
REMARK  229  A    between atoms: _579  and  _581
REMARK  230  A    between atoms: _581  and  _582
REMARK  231  A    between atoms: _581  and  _584
REMARK  232  A    between atoms: _584  and  _585
REMARK  233  A    between atoms: _590  and  _591
REMARK  234  A    between atoms: _590  and  _593
REMARK  235  A    between atoms: _593  and  _594
REMARK  236  A    between atoms: _597  and  _599
REMARK  237  A    between atoms: _599  and  _600
REMARK  238  A    between atoms: _599  and  _602
REMARK  239  A    between atoms: _602  and  _603
REMARK  240  A    between atoms: _603  and  _604
REMARK  241  A    between atoms: _604  and  _605
REMARK  242  A    between atoms: _614  and  _616
REMARK  243  A    between atoms: _616  and  _617
REMARK                            x       y       z     vdW  Elec       q    Type
REMARK                         _______ _______ _______ _____ _____    ______ ____
ROOT
ATOM      1  CA  ARG A   1      92.193 -10.277 123.026  0.00  0.00    +0.145 C 
ENDROOT
BRANCH   1   2
ATOM      2  C   ARG A   1      90.746 -10.721 122.855  0.00  0.00    +0.238 C 
ATOM      3  O   ARG A   1      90.365 -11.799 123.290  0.00  0.00    -0.274 OA
ATOM      4  N   ILE A   2      89.938  -9.877 122.232  0.00  0.00    -0.298 N 
ATOM      5  H   ILE A   2      90.305  -8.970 121.879  0.00  0.00    +0.150 HD
BRANCH   4   6
ATOM      6  CA  ILE A   2      88.538 -10.219 122.041  0.00  0.00    +0.137 C 
BRANCH   6   7
ATOM      7  CB  ILE A   2      87.718  -8.988 121.676  0.00  0.00    +0.026 C 
ATOM      8  CG2 ILE A   2      86.236  -9.367 121.553  0.00  0.00    +0.002 C 
BRANCH   7   9
ATOM      9  CG1 ILE A   2      87.934  -7.902 122.745  0.00  0.00    +0.002 C 
ATOM     10  CD1 ILE A   2      87.573  -8.344 124.137  0.00  0.00    +0.000 C 
ENDBRANCH   7   9
ENDBRANCH   6   7
BRANCH   6  11
ATOM     11  C   ILE A   2      88.402 -11.279 120.968  0.00  0.00    +0.227 C 
ATOM     12  O   ILE A   2      87.623 -12.224 121.115  0.00  0.00    -0.286 OA
ENDBRANCH   6  11
ENDBRANCH   4   6
ENDBRANCH   1   2
BRANCH   1  13
ATOM     13  N   ARG A   1      92.700  -9.472 121.914  0.00  0.00    -0.238 NA
ATOM     14  H   ARG A   1      92.957  -8.479 122.086  0.00  0.00    +0.142 HD
ENDBRANCH   1  13
BRANCH   1  15
ATOM     15  CB  ARG A   1      92.455  -9.661 124.397  0.00  0.00    +0.030 C 
BRANCH  15  16
ATOM     16  CG  ARG A   1      91.652  -8.392 124.652  0.00  0.00    +0.045 C 
BRANCH  16  17
ATOM     17  CD  ARG A   1      92.201  -7.594 125.850  0.00  0.00    +0.174 C 
BRANCH  17  18
ATOM     18  NE  ARG A   1      91.692  -6.227 125.832  0.00  0.00    -0.265 N 
ATOM     19  CZ  ARG A   1      90.580  -5.809 126.435  0.00  0.00    +0.342 C 
ATOM     20  NH2 ARG A   1      89.826  -6.651 127.140  0.00  0.00    -0.292 N 
ATOM     21 HH21 ARG A   1      88.961  -6.309 127.605  0.00  0.00    +0.255 HD
ATOM     22 HH22 ARG A   1      90.103  -7.650 127.225  0.00  0.00    +0.255 HD
ATOM     23  NH1 ARG A   1      90.212  -4.538 126.320  0.00  0.00    -0.292 N 
ATOM     24 HH11 ARG A   1      89.345  -4.203 126.787  0.00  0.00    +0.255 HD
ATOM     25 HH12 ARG A   1      90.790  -3.878 125.763  0.00  0.00    +0.255 HD
ATOM     26  HE  ARG A   1      92.243  -5.520 125.305  0.00  0.00    +0.259 HD
ENDBRANCH  17  18
ENDBRANCH  16  17
ENDBRANCH  15  16
ENDBRANCH   1  15
TORSDOF 10
REMARK  Name = ../refined-set-2016/3upk/3upk_pocket.pdb
REMARK  243 active torsions:
REMARK  status: ('A' for Active; 'I' for Inactive)
REMARK    1  A    between atoms: _1  and  _3
REMARK    2  A    between atoms: _3  and  _4
REMARK    3  A    between atoms: _3  and  _6
REMARK    4  A    between atoms: _6  and  _7
REMARK    5  A    between atoms: _7  and  _8
REMARK    6  A    between atoms: _8  and  _9
REMARK    7  A    between atoms: _9  and  _10
REMARK    8  A    between atoms: _16  and  _17
REMARK    9  A    between atoms: _16  and  _19
REMARK   10  A    between atoms: _19  and  _20
REMARK   11  A    between atoms: _25  and  _27
REMARK   12  A    between atoms: _27  and  _28
REMARK   13  A    between atoms: _31  and  _33
REMARK   14  A    between atoms: _33  and  _34
REMARK   15  A    between atoms: _33  and  _36
REMARK   16  A    between atoms: _36  and  _37
REMARK   17  A    between atoms: _41  and  _42
REMARK   18  A    between atoms: _47  and  _49
REMARK   19  A    between atoms: _49  and  _50
REMARK   20  A    between atoms: _49  and  _52
REMARK   21  A    between atoms: _52  and  _53
REMARK   22  A    between atoms: _59  and  _61
REMARK   23  A    between atoms: _61  and  _62
REMARK   24  A    between atoms: _61  and  _64
REMARK   25  A    between atoms: _64  and  _65
REMARK   26  A    between atoms: _68  and  _70
REMARK   27  A    between atoms: _70  and  _71
REMARK   28  A    between atoms: _70  and  _73
REMARK   29  A    between atoms: _73  and  _74
REMARK   30  A    between atoms: _74  and  _75
REMARK   31  A    between atoms: _77  and  _79
REMARK   32  A    between atoms: _79  and  _80
REMARK   33  A    between atoms: _79  and  _82
REMARK   34  A    between atoms: _82  and  _83
REMARK   35  A    between atoms: _83  and  _84
REMARK   36  A    between atoms: _84  and  _85
REMARK   37  A    between atoms: _94  and  _96
REMARK   38  A    between atoms: _96  and  _97
REMARK   39  A    between atoms: _100  and  _102
REMARK   40  A    between atoms: _102  and  _103
REMARK   41  A    between atoms: _102  and  _105
REMARK   42  A    between atoms: _105  and  _106
REMARK   43  A    between atoms: _108  and  _110
REMARK   44  A    between atoms: _110  and  _111
REMARK   45  A    between atoms: _110  and  _113
REMARK   46  A    between atoms: _113  and  _114
REMARK   47  A    between atoms: _117  and  _119
REMARK   48  A    between atoms: _119  and  _120
REMARK   49  A    between atoms: _119  and  _122
REMARK   50  A    between atoms: _122  and  _123
REMARK   51  A    between atoms: _133  and  _135
REMARK   52  A    between atoms: _135  and  _136
REMARK   53  A    between atoms: _135  and  _138
REMARK   54  A    between atoms: _138  and  _139
REMARK   55  A    between atoms: _142  and  _144
REMARK   56  A    between atoms: _144  and  _145
REMARK   57  A    between atoms: _147  and  _149
REMARK   58  A    between atoms: _149  and  _150
REMARK   59  A    between atoms: _153  and  _155
REMARK   60  A    between atoms: _155  and  _156
REMARK   61  A    between atoms: _155  and  _158
REMARK   62  A    between atoms: _158  and  _159
REMARK   63  A    between atoms: _159  and  _160
REMARK   64  A    between atoms: _160  and  _161
REMARK   65  A    between atoms: _171  and  _172
REMARK   66  A    between atoms: _177  and  _179
REMARK   67  A    between atoms: _179  and  _180
REMARK   68  A    between atoms: _179  and  _182
REMARK   69  A    between atoms: _185  and  _187
REMARK   70  A    between atoms: _187  and  _188
REMARK   71  A    between atoms: _187  and  _190
REMARK   72  A    between atoms: _190  and  _191
REMARK   73  A    between atoms: _194  and  _196
REMARK   74  A    between atoms: _196  and  _197
REMARK   75  A    between atoms: _196  and  _199
REMARK   76  A    between atoms: _199  and  _200
REMARK   77  A    between atoms: _203  and  _205
REMARK   78  A    between atoms: _205  and  _206
REMARK   79  A    between atoms: _205  and  _208
REMARK   80  A    between atoms: _208  and  _209
REMARK   81  A    between atoms: _214  and  _216
REMARK   82  A    between atoms: _216  and  _217
REMARK   83  A    between atoms: _216  and  _219
REMARK   84  A    between atoms: _219  and  _220
REMARK   85  A    between atoms: _223  and  _225
REMARK   86  A    between atoms: _225  and  _226
REMARK   87  A    between atoms: _225  and  _228
REMARK   88  A    between atoms: _228  and  _229
REMARK   89  A    between atoms: _235  and  _237
REMARK   90  A    between atoms: _237  and  _238
REMARK   91  A    between atoms: _240  and  _242
REMARK   92  A    between atoms: _242  and  _243
REMARK   93  A    between atoms: _242  and  _245
REMARK   94  A    between atoms: _245  and  _246
REMARK   95  A    between atoms: _246  and  _247
REMARK   96  A    between atoms: _249  and  _251
REMARK   97  A    between atoms: _251  and  _252
REMARK   98  A    between atoms: _251  and  _254
REMARK   99  A    between atoms: _254  and  _255
REMARK  100  A    between atoms: _258  and  _260
REMARK  101  A    between atoms: _260  and  _261
REMARK  102  A    between atoms: _260  and  _263
REMARK  103  A    between atoms: _263  and  _264
REMARK  104  A    between atoms: _264  and  _265
REMARK  105  A    between atoms: _265  and  _266
REMARK  106  A    between atoms: _266  and  _267
REMARK  107  A    between atoms: _271  and  _273
REMARK  108  A    between atoms: _273  and  _274
REMARK  109  A    between atoms: _273  and  _276
REMARK  110  A    between atoms: _279  and  _281
REMARK  111  A    between atoms: _281  and  _282
REMARK  112  A    between atoms: _281  and  _284
REMARK  113  A    between atoms: _284  and  _285
REMARK  114  A    between atoms: _287  and  _289
REMARK  115  A    between atoms: _289  and  _290
REMARK  116  A    between atoms: _289  and  _292
REMARK  117  A    between atoms: _295  and  _297
REMARK  118  A    between atoms: _297  and  _298
REMARK  119  A    between atoms: _300  and  _302
REMARK  120  A    between atoms: _302  and  _303
REMARK  121  A    between atoms: _306  and  _308
REMARK  122  A    between atoms: _308  and  _309
REMARK  123  A    between atoms: _308  and  _311
REMARK  124  A    between atoms: _311  and  _312
REMARK  125  A    between atoms: _315  and  _317
REMARK  126  A    between atoms: _317  and  _318
REMARK  127  A    between atoms: _317  and  _320
REMARK  128  A    between atoms: _323  and  _325
REMARK  129  A    between atoms: _325  and  _326
REMARK  130  A    between atoms: _325  and  _328
REMARK  131  A    between atoms: _328  and  _329
REMARK  132  A    between atoms: _332  and  _334
REMARK  133  A    between atoms: _334  and  _335
REMARK  134  A    between atoms: _338  and  _340
REMARK  135  A    between atoms: _340  and  _341
REMARK  136  A    between atoms: _340  and  _343
REMARK  137  A    between atoms: _343  and  _344
REMARK  138  A    between atoms: _344  and  _345
REMARK  139  A    between atoms: _345  and  _346
REMARK  140  A    between atoms: _355  and  _357
REMARK  141  A    between atoms: _357  and  _358
REMARK  142  A    between atoms: _357  and  _360
REMARK  143  A    between atoms: _360  and  _361
REMARK  144  A    between atoms: _361  and  _362
REMARK  145  A    between atoms: _365  and  _367
REMARK  146  A    between atoms: _367  and  _368
REMARK  147  A    between atoms: _367  and  _370
REMARK  148  A    between atoms: _370  and  _371
REMARK  149  A    between atoms: _371  and  _372
REMARK  150  A    between atoms: _375  and  _377
REMARK  151  A    between atoms: _377  and  _378
REMARK  152  A    between atoms: _377  and  _380
REMARK  153  A    between atoms: _380  and  _381
REMARK  154  A    between atoms: _384  and  _386
REMARK  155  A    between atoms: _386  and  _387
REMARK  156  A    between atoms: _386  and  _389
REMARK  157  A    between atoms: _389  and  _390
REMARK  158  A    between atoms: _390  and  _391
REMARK  159  A    between atoms: _391  and  _392
REMARK  160  A    between atoms: _401  and  _403
REMARK  161  A    between atoms: _403  and  _404
REMARK  162  A    between atoms: _403  and  _406
REMARK  163  A    between atoms: _406  and  _407
REMARK  164  A    between atoms: _410  and  _412
REMARK  165  A    between atoms: _412  and  _413
REMARK  166  A    between atoms: _412  and  _415
REMARK  167  A    between atoms: _415  and  _416
REMARK  168  A    between atoms: _419  and  _421
REMARK  169  A    between atoms: _421  and  _422
REMARK  170  A    between atoms: _426  and  _427
REMARK  171  A    between atoms: _432  and  _434
REMARK  172  A    between atoms: _434  and  _435
REMARK  173  A    between atoms: _434  and  _437
REMARK  174  A    between atoms: _437  and  _438
REMARK  175  A    between atoms: _443  and  _445
REMARK  176  A    between atoms: _445  and  _446
REMARK  177  A    between atoms: _445  and  _448
REMARK  178  A    between atoms: _448  and  _449
REMARK  179  A    between atoms: _456  and  _457
REMARK  180  A    between atoms: _462  and  _464
REMARK  181  A    between atoms: _464  and  _465
REMARK  182  A    between atoms: _464  and  _467
REMARK  183  A    between atoms: _467  and  _468
REMARK  184  A    between atoms: _471  and  _473
REMARK  185  A    between atoms: _473  and  _474
REMARK  186  A    between atoms: _473  and  _476
REMARK  187  A    between atoms: _476  and  _477
REMARK  188  A    between atoms: _480  and  _482
REMARK  189  A    between atoms: _482  and  _483
REMARK  190  A    between atoms: _482  and  _485
REMARK  191  A    between atoms: _485  and  _486
REMARK  192  A    between atoms: _486  and  _487
REMARK  193  A    between atoms: _489  and  _491
REMARK  194  A    between atoms: _491  and  _492
REMARK  195  A    between atoms: _491  and  _494
REMARK  196  A    between atoms: _494  and  _495
REMARK  197  A    between atoms: _495  and  _496
REMARK  198  A    between atoms: _501  and  _503
REMARK  199  A    between atoms: _503  and  _504
REMARK  200  A    between atoms: _503  and  _506
REMARK  201  A    between atoms: _506  and  _507
REMARK  202  A    between atoms: _507  and  _508
REMARK  203  A    between atoms: _511  and  _513
REMARK  204  A    between atoms: _513  and  _514
REMARK  205  A    between atoms: _513  and  _516
REMARK  206  A    between atoms: _516  and  _517
REMARK  207  A    between atoms: _520  and  _522
REMARK  208  A    between atoms: _522  and  _523
REMARK  209  A    between atoms: _522  and  _525
REMARK  210  A    between atoms: _525  and  _526
REMARK  211  A    between atoms: _529  and  _531
REMARK  212  A    between atoms: _531  and  _532
REMARK  213  A    between atoms: _531  and  _534
REMARK  214  A    between atoms: _534  and  _535
REMARK  215  A    between atoms: _543  and  _544
REMARK  216  A    between atoms: _543  and  _546
REMARK  217  A    between atoms: _546  and  _547
REMARK  218  A    between atoms: _547  and  _548
REMARK  219  A    between atoms: _551  and  _553
REMARK  220  A    between atoms: _553  and  _554
REMARK  221  A    between atoms: _553  and  _556
REMARK  222  A    between atoms: _556  and  _557
REMARK  223  A    between atoms: _562  and  _564
REMARK  224  A    between atoms: _564  and  _565
REMARK  225  A    between atoms: _564  and  _567
REMARK  226  A    between atoms: _567  and  _568
REMARK  227  A    between atoms: _568  and  _569
REMARK  228  A    between atoms: _569  and  _570
REMARK  229  A    between atoms: _579  and  _581
REMARK  230  A    between atoms: _581  and  _582
REMARK  231  A    between atoms: _581  and  _584
REMARK  232  A    between atoms: _584  and  _585
REMARK  233  A    between atoms: _590  and  _591
REMARK  234  A    between atoms: _590  and  _593
REMARK  235  A    between atoms: _593  and  _594
REMARK  236  A    between atoms: _597  and  _599
REMARK  237  A    between atoms: _599  and  _600
REMARK  238  A    between atoms: _599  and  _602
REMARK  239  A    between atoms: _602  and  _603
REMARK  240  A    between atoms: _603  and  _604
REMARK  241  A    between atoms: _604  and  _605
REMARK  242  A    between atoms: _614  and  _616
REMARK  243  A    between atoms: _616  and  _617
REMARK                            x       y       z     vdW  Elec       q    Type
REMARK                         _______ _______ _______ _____ _____    ______ ____
ROOT
ATOM      1  C   ALA A   2      85.273  -3.904 133.744  0.00  0.00    +0.244 C 
ATOM      2  N   PRO A   3      85.903  -2.794 134.084  0.00  0.00    -0.272 N 
ATOM      3  CD  PRO A   3      85.447  -1.764 135.014  0.00  0.00    +0.094 C 
ATOM      4  CG  PRO A   3      86.104  -0.591 134.557  0.00  0.00    +0.024 C 
ATOM      5  CB  PRO A   3      87.422  -1.050 134.044  0.00  0.00    +0.031 C 
ATOM      6  CA  PRO A   3      87.130  -2.386 133.413  0.00  0.00    +0.152 C 
ATOM      7  O   ALA A   2      85.696  -4.621 132.836  0.00  0.00    -0.273 OA
ENDROOT
BRANCH   6   8
ATOM      8  C   PRO A   3      88.292  -3.352 133.617  0.00  0.00    +0.241 C 
ATOM      9  O   PRO A   3      88.376  -4.018 134.596  0.00  0.00    -0.273 OA
ATOM     10  N   HIS A   4      89.178  -3.386 132.652  0.00  0.00    -0.298 N 
ATOM     11  H   HIS A   4      89.090  -2.726 131.853  0.00  0.00    +0.150 HD
BRANCH  10  12
ATOM     12  CA  HIS A   4      90.279  -4.328 132.680  0.00  0.00    +0.143 C 
BRANCH  12  13
ATOM     13  C   HIS A   4      91.059  -4.157 133.968  0.00  0.00    +0.227 C 
ATOM     14  O   HIS A   4      91.156  -3.092 134.380  0.00  0.00    -0.286 OA
ENDBRANCH  12  13
BRANCH  12  15
ATOM     15  CB  HIS A   4      91.146  -4.125 131.457  0.00  0.00    +0.075 C 
BRANCH  15  16
ATOM     16  CG  HIS A   4      92.314  -5.041 131.379  0.00  0.00    +0.082 A 
ATOM     17  CD2 HIS A   4      93.571  -4.909 131.842  0.00  0.00    +0.115 A 
ATOM     18  NE2 HIS A   4      94.259  -6.021 131.464  0.00  0.00    -0.221 NA
ATOM     19  CE1 HIS A   4      93.457  -6.813 130.798  0.00  0.00    +0.199 A 
ATOM     20  ND1 HIS A   4      92.275  -6.248 130.738  0.00  0.00    -0.227 NA
ENDBRANCH  15  16
ENDBRANCH  12  15
ENDBRANCH  10  12
ENDBRANCH   6   8
BRANCH   1  21
ATOM     21  CA  ALA A   2      83.992  -4.294 134.499  0.00  0.00    +0.149 C 
ATOM     22  CB  ALA A   2      84.305  -4.652 135.970  0.00  0.00    +0.031 C 
BRANCH  21  25
ATOM     23  C   THR A   1      82.237  -5.958 134.065  0.00  0.00    +0.241 C 
ATOM     24  O   THR A   1      81.470  -5.484 134.906  0.00  0.00    -0.274 OA
ATOM     25  N   ALA A   2      83.444  -5.463 133.810  0.00  0.00    -0.297 N 
ATOM     26  H   ALA A   2      84.027  -5.929 133.086  0.00  0.00    +0.150 HD
BRANCH  23  27
ATOM     27  CA  THR A   1      81.823  -7.174 133.246  0.00  0.00    +0.172 C 
BRANCH  27  28
ATOM     28  N   THR A   1      80.923  -7.966 134.084  0.00  0.00    -0.236 NA
ATOM     29  H   THR A   1      79.897  -7.952 133.912  0.00  0.00    +0.142 HD
ENDBRANCH  27  28
BRANCH  27  30
ATOM     30  CB  THR A   1      81.150  -6.652 131.956  0.00  0.00    +0.135 C 
ATOM     31  CG2 THR A   1      80.353  -7.759 131.247  0.00  0.00    +0.034 C 
BRANCH  30  32
ATOM     32  OG1 THR A   1      80.281  -5.558 132.280  0.00  0.00    -0.383 OA
ATOM     33  HG1 THR A   1      79.850  -5.224 131.453  0.00  0.00    +0.210 HD
ENDBRANCH  30  32
ENDBRANCH  27  30
ENDBRANCH  23  27
ENDBRANCH  21  25
ENDBRANCH   1  21
TORSDOF 11
REMARK  Name = ../refined-set-2016/3upk/3upk_pocket.pdb
REMARK  243 active torsions:
REMARK  status: ('A' for Active; 'I' for Inactive)
REMARK    1  A    between atoms: _1  and  _3
REMARK    2  A    between atoms: _3  and  _4
REMARK    3  A    between atoms: _3  and  _6
REMARK    4  A    between atoms: _6  and  _7
REMARK    5  A    between atoms: _7  and  _8
REMARK    6  A    between atoms: _8  and  _9
REMARK    7  A    between atoms: _9  and  _10
REMARK    8  A    between atoms: _16  and  _17
REMARK    9  A    between atoms: _16  and  _19
REMARK   10  A    between atoms: _19  and  _20
REMARK   11  A    between atoms: _25  and  _27
REMARK   12  A    between atoms: _27  and  _28
REMARK   13  A    between atoms: _31  and  _33
REMARK   14  A    between atoms: _33  and  _34
REMARK   15  A    between atoms: _33  and  _36
REMARK   16  A    between atoms: _36  and  _37
REMARK   17  A    between atoms: _41  and  _42
REMARK   18  A    between atoms: _47  and  _49
REMARK   19  A    between atoms: _49  and  _50
REMARK   20  A    between atoms: _49  and  _52
REMARK   21  A    between atoms: _52  and  _53
REMARK   22  A    between atoms: _59  and  _61
REMARK   23  A    between atoms: _61  and  _62
REMARK   24  A    between atoms: _61  and  _64
REMARK   25  A    between atoms: _64  and  _65
REMARK   26  A    between atoms: _68  and  _70
REMARK   27  A    between atoms: _70  and  _71
REMARK   28  A    between atoms: _70  and  _73
REMARK   29  A    between atoms: _73  and  _74
REMARK   30  A    between atoms: _74  and  _75
REMARK   31  A    between atoms: _77  and  _79
REMARK   32  A    between atoms: _79  and  _80
REMARK   33  A    between atoms: _79  and  _82
REMARK   34  A    between atoms: _82  and  _83
REMARK   35  A    between atoms: _83  and  _84
REMARK   36  A    between atoms: _84  and  _85
REMARK   37  A    between atoms: _94  and  _96
REMARK   38  A    between atoms: _96  and  _97
REMARK   39  A    between atoms: _100  and  _102
REMARK   40  A    between atoms: _102  and  _103
REMARK   41  A    between atoms: _102  and  _105
REMARK   42  A    between atoms: _105  and  _106
REMARK   43  A    between atoms: _108  and  _110
REMARK   44  A    between atoms: _110  and  _111
REMARK   45  A    between atoms: _110  and  _113
REMARK   46  A    between atoms: _113  and  _114
REMARK   47  A    between atoms: _117  and  _119
REMARK   48  A    between atoms: _119  and  _120
REMARK   49  A    between atoms: _119  and  _122
REMARK   50  A    between atoms: _122  and  _123
REMARK   51  A    between atoms: _133  and  _135
REMARK   52  A    between atoms: _135  and  _136
REMARK   53  A    between atoms: _135  and  _138
REMARK   54  A    between atoms: _138  and  _139
REMARK   55  A    between atoms: _142  and  _144
REMARK   56  A    between atoms: _144  and  _145
REMARK   57  A    between atoms: _147  and  _149
REMARK   58  A    between atoms: _149  and  _150
REMARK   59  A    between atoms: _153  and  _155
REMARK   60  A    between atoms: _155  and  _156
REMARK   61  A    between atoms: _155  and  _158
REMARK   62  A    between atoms: _158  and  _159
REMARK   63  A    between atoms: _159  and  _160
REMARK   64  A    between atoms: _160  and  _161
REMARK   65  A    between atoms: _171  and  _172
REMARK   66  A    between atoms: _177  and  _179
REMARK   67  A    between atoms: _179  and  _180
REMARK   68  A    between atoms: _179  and  _182
REMARK   69  A    between atoms: _185  and  _187
REMARK   70  A    between atoms: _187  and  _188
REMARK   71  A    between atoms: _187  and  _190
REMARK   72  A    between atoms: _190  and  _191
REMARK   73  A    between atoms: _194  and  _196
REMARK   74  A    between atoms: _196  and  _197
REMARK   75  A    between atoms: _196  and  _199
REMARK   76  A    between atoms: _199  and  _200
REMARK   77  A    between atoms: _203  and  _205
REMARK   78  A    between atoms: _205  and  _206
REMARK   79  A    between atoms: _205  and  _208
REMARK   80  A    between atoms: _208  and  _209
REMARK   81  A    between atoms: _214  and  _216
REMARK   82  A    between atoms: _216  and  _217
REMARK   83  A    between atoms: _216  and  _219
REMARK   84  A    between atoms: _219  and  _220
REMARK   85  A    between atoms: _223  and  _225
REMARK   86  A    between atoms: _225  and  _226
REMARK   87  A    between atoms: _225  and  _228
REMARK   88  A    between atoms: _228  and  _229
REMARK   89  A    between atoms: _235  and  _237
REMARK   90  A    between atoms: _237  and  _238
REMARK   91  A    between atoms: _240  and  _242
REMARK   92  A    between atoms: _242  and  _243
REMARK   93  A    between atoms: _242  and  _245
REMARK   94  A    between atoms: _245  and  _246
REMARK   95  A    between atoms: _246  and  _247
REMARK   96  A    between atoms: _249  and  _251
REMARK   97  A    between atoms: _251  and  _252
REMARK   98  A    between atoms: _251  and  _254
REMARK   99  A    between atoms: _254  and  _255
REMARK  100  A    between atoms: _258  and  _260
REMARK  101  A    between atoms: _260  and  _261
REMARK  102  A    between atoms: _260  and  _263
REMARK  103  A    between atoms: _263  and  _264
REMARK  104  A    between atoms: _264  and  _265
REMARK  105  A    between atoms: _265  and  _266
REMARK  106  A    between atoms: _266  and  _267
REMARK  107  A    between atoms: _271  and  _273
REMARK  108  A    between atoms: _273  and  _274
REMARK  109  A    between atoms: _273  and  _276
REMARK  110  A    between atoms: _279  and  _281
REMARK  111  A    between atoms: _281  and  _282
REMARK  112  A    between atoms: _281  and  _284
REMARK  113  A    between atoms: _284  and  _285
REMARK  114  A    between atoms: _287  and  _289
REMARK  115  A    between atoms: _289  and  _290
REMARK  116  A    between atoms: _289  and  _292
REMARK  117  A    between atoms: _295  and  _297
REMARK  118  A    between atoms: _297  and  _298
REMARK  119  A    between atoms: _300  and  _302
REMARK  120  A    between atoms: _302  and  _303
REMARK  121  A    between atoms: _306  and  _308
REMARK  122  A    between atoms: _308  and  _309
REMARK  123  A    between atoms: _308  and  _311
REMARK  124  A    between atoms: _311  and  _312
REMARK  125  A    between atoms: _315  and  _317
REMARK  126  A    between atoms: _317  and  _318
REMARK  127  A    between atoms: _317  and  _320
REMARK  128  A    between atoms: _323  and  _325
REMARK  129  A    between atoms: _325  and  _326
REMARK  130  A    between atoms: _325  and  _328
REMARK  131  A    between atoms: _328  and  _329
REMARK  132  A    between atoms: _332  and  _334
REMARK  133  A    between atoms: _334  and  _335
REMARK  134  A    between atoms: _338  and  _340
REMARK  135  A    between atoms: _340  and  _341
REMARK  136  A    between atoms: _340  and  _343
REMARK  137  A    between atoms: _343  and  _344
REMARK  138  A    between atoms: _344  and  _345
REMARK  139  A    between atoms: _345  and  _346
REMARK  140  A    between atoms: _355  and  _357
REMARK  141  A    between atoms: _357  and  _358
REMARK  142  A    between atoms: _357  and  _360
REMARK  143  A    between atoms: _360  and  _361
REMARK  144  A    between atoms: _361  and  _362
REMARK  145  A    between atoms: _365  and  _367
REMARK  146  A    between atoms: _367  and  _368
REMARK  147  A    between atoms: _367  and  _370
REMARK  148  A    between atoms: _370  and  _371
REMARK  149  A    between atoms: _371  and  _372
REMARK  150  A    between atoms: _375  and  _377
REMARK  151  A    between atoms: _377  and  _378
REMARK  152  A    between atoms: _377  and  _380
REMARK  153  A    between atoms: _380  and  _381
REMARK  154  A    between atoms: _384  and  _386
REMARK  155  A    between atoms: _386  and  _387
REMARK  156  A    between atoms: _386  and  _389
REMARK  157  A    between atoms: _389  and  _390
REMARK  158  A    between atoms: _390  and  _391
REMARK  159  A    between atoms: _391  and  _392
REMARK  160  A    between atoms: _401  and  _403
REMARK  161  A    between atoms: _403  and  _404
REMARK  162  A    between atoms: _403  and  _406
REMARK  163  A    between atoms: _406  and  _407
REMARK  164  A    between atoms: _410  and  _412
REMARK  165  A    between atoms: _412  and  _413
REMARK  166  A    between atoms: _412  and  _415
REMARK  167  A    between atoms: _415  and  _416
REMARK  168  A    between atoms: _419  and  _421
REMARK  169  A    between atoms: _421  and  _422
REMARK  170  A    between atoms: _426  and  _427
REMARK  171  A    between atoms: _432  and  _434
REMARK  172  A    between atoms: _434  and  _435
REMARK  173  A    between atoms: _434  and  _437
REMARK  174  A    between atoms: _437  and  _438
REMARK  175  A    between atoms: _443  and  _445
REMARK  176  A    between atoms: _445  and  _446
REMARK  177  A    between atoms: _445  and  _448
REMARK  178  A    between atoms: _448  and  _449
REMARK  179  A    between atoms: _456  and  _457
REMARK  180  A    between atoms: _462  and  _464
REMARK  181  A    between atoms: _464  and  _465
REMARK  182  A    between atoms: _464  and  _467
REMARK  183  A    between atoms: _467  and  _468
REMARK  184  A    between atoms: _471  and  _473
REMARK  185  A    between atoms: _473  and  _474
REMARK  186  A    between atoms: _473  and  _476
REMARK  187  A    between atoms: _476  and  _477
REMARK  188  A    between atoms: _480  and  _482
REMARK  189  A    between atoms: _482  and  _483
REMARK  190  A    between atoms: _482  and  _485
REMARK  191  A    between atoms: _485  and  _486
REMARK  192  A    between atoms: _486  and  _487
REMARK  193  A    between atoms: _489  and  _491
REMARK  194  A    between atoms: _491  and  _492
REMARK  195  A    between atoms: _491  and  _494
REMARK  196  A    between atoms: _494  and  _495
REMARK  197  A    between atoms: _495  and  _496
REMARK  198  A    between atoms: _501  and  _503
REMARK  199  A    between atoms: _503  and  _504
REMARK  200  A    between atoms: _503  and  _506
REMARK  201  A    between atoms: _506  and  _507
REMARK  202  A    between atoms: _507  and  _508
REMARK  203  A    between atoms: _511  and  _513
REMARK  204  A    between atoms: _513  and  _514
REMARK  205  A    between atoms: _513  and  _516
REMARK  206  A    between atoms: _516  and  _517
REMARK  207  A    between atoms: _520  and  _522
REMARK  208  A    between atoms: _522  and  _523
REMARK  209  A    between atoms: _522  and  _525
REMARK  210  A    between atoms: _525  and  _526
REMARK  211  A    between atoms: _529  and  _531
REMARK  212  A    between atoms: _531  and  _532
REMARK  213  A    between atoms: _531  and  _534
REMARK  214  A    between atoms: _534  and  _535
REMARK  215  A    between atoms: _543  and  _544
REMARK  216  A    between atoms: _543  and  _546
REMARK  217  A    between atoms: _546  and  _547
REMARK  218  A    between atoms: _547  and  _548
REMARK  219  A    between atoms: _551  and  _553
REMARK  220  A    between atoms: _553  and  _554
REMARK  221  A    between atoms: _553  and  _556
REMARK  222  A    between atoms: _556  and  _557
REMARK  223  A    between atoms: _562  and  _564
REMARK  224  A    between atoms: _564  and  _565
REMARK  225  A    between atoms: _564  and  _567
REMARK  226  A    between atoms: _567  and  _568
REMARK  227  A    between atoms: _568  and  _569
REMARK  228  A    between atoms: _569  and  _570
REMARK  229  A    between atoms: _579  and  _581
REMARK  230  A    between atoms: _581  and  _582
REMARK  231  A    between atoms: _581  and  _584
REMARK  232  A    between atoms: _584  and  _585
REMARK  233  A    between atoms: _590  and  _591
REMARK  234  A    between atoms: _590  and  _593
REMARK  235  A    between atoms: _593  and  _594
REMARK  236  A    between atoms: _597  and  _599
REMARK  237  A    between atoms: _599  and  _600
REMARK  238  A    between atoms: _599  and  _602
REMARK  239  A    between atoms: _602  and  _603
REMARK  240  A    between atoms: _603  and  _604
REMARK  241  A    between atoms: _604  and  _605
REMARK  242  A    between atoms: _614  and  _616
REMARK  243  A    between atoms: _616  and  _617
REMARK                            x       y       z     vdW  Elec       q    Type
REMARK                         _______ _______ _______ _____ _____    ______ ____
ROOT
ATOM      1  C   THR A   3      82.138  -6.866 126.757  0.00  0.00    +0.243 C 
ATOM      2  O   THR A   3      81.142  -7.415 126.253  0.00  0.00    -0.273 OA
ATOM      3  N   ASP A   4      83.279  -6.707 126.079  0.00  0.00    -0.296 N 
ATOM      4  H   ASP A   4      84.077  -6.211 126.525  0.00  0.00    +0.150 HD
ENDROOT
BRANCH   3   5
ATOM      5  CA  ASP A   4      83.419  -7.225 124.709  0.00  0.00    +0.160 C 
BRANCH   5   6
ATOM      6  C   ASP A   4      83.343  -8.766 124.570  0.00  0.00    +0.241 C 
ATOM      7  N   MET A   5      83.385  -9.482 125.699  0.00  0.00    -0.297 N 
ATOM      8  H   MET A   5      83.502  -8.969 126.596  0.00  0.00    +0.150 HD
ATOM      9  O   ASP A   4      83.311  -9.270 123.444  0.00  0.00    -0.273 OA
BRANCH   7  10
ATOM     10  CA  MET A   5      83.275 -10.959 125.755  0.00  0.00    +0.149 C 
BRANCH  10  11
ATOM     11  C   MET A   5      81.913 -11.367 126.347  0.00  0.00    +0.241 C 
ATOM     12  N   GLN A   6      81.110 -10.399 126.710  0.00  0.00    -0.298 N 
ATOM     13  H   GLN A   6      81.377  -9.414 126.512  0.00  0.00    +0.150 HD
ATOM     14  O   MET A   5      81.593 -12.549 126.462  0.00  0.00    -0.273 OA
BRANCH  12  15
ATOM     15  CA  GLN A   6      79.868 -10.672 127.376  0.00  0.00    +0.137 C 
BRANCH  15  16
ATOM     16  C   GLN A   6      78.853 -11.498 126.578  0.00  0.00    +0.227 C 
ATOM     17  O   GLN A   6      78.334 -12.448 127.070  0.00  0.00    -0.286 OA
ENDBRANCH  15  16
BRANCH  15  18
ATOM     18  CB  GLN A   6      79.263  -9.409 127.877  0.00  0.00    +0.037 C 
BRANCH  18  19
ATOM     19  CG  GLN A   6      78.050  -9.580 128.671  0.00  0.00    +0.087 C 
BRANCH  19  20
ATOM     20  CD  GLN A   6      76.788  -9.274 127.895  0.00  0.00    +0.219 C 
ATOM     21  NE2 GLN A   6      76.489  -8.017 127.716  0.00  0.00    -0.329 N 
ATOM     22 HE21 GLN A   6      77.127  -7.275 128.069  0.00  0.00    +0.145 HD
ATOM     23 HE22 GLN A   6      75.612  -7.756 127.221  0.00  0.00    +0.145 HD
ATOM     24  OE1 GLN A   6      76.099 -10.156 127.515  0.00  0.00    -0.275 OA
ENDBRANCH  19  20
ENDBRANCH  18  19
ENDBRANCH  15  18
ENDBRANCH  12  15
ENDBRANCH  10  11
BRANCH  10  25
ATOM     25  CB  MET A   5      84.421 -11.639 126.519  0.00  0.00    +0.041 C 
BRANCH  25  26
ATOM     26  CG  MET A   5      85.781 -11.629 125.824  0.00  0.00    +0.060 C 
BRANCH  26  27
ATOM     27  SD  MET A   5      85.682 -12.435 124.193  0.00  0.00    -0.139 S 
ATOM     28  CE  MET A   5      85.001 -14.034 124.624  0.00  0.00    +0.069 C 
ENDBRANCH  26  27
ENDBRANCH  25  26
ENDBRANCH  10  25
ENDBRANCH   7  10
ENDBRANCH   5   6
BRANCH   5  29
ATOM     29  CB  ASP A   4      84.592  -6.646 123.913  0.00  0.00    +0.143 C 
BRANCH  29  30
ATOM     30  CG  ASP A   4      84.379  -5.200 123.515  0.00  0.00    +0.367 C 
ATOM     31  OD2 ASP A   4      83.221  -4.732 123.493  0.00  0.00    -0.246 OA
ATOM     32  OD1 ASP A   4      85.381  -4.540 123.214  0.00  0.00    -0.246 OA
ENDBRANCH  29  30
ENDBRANCH   5  29
ENDBRANCH   3   5
BRANCH   1  33
ATOM     33  CA  THR A   3      82.109  -6.347 128.213  0.00  0.00    +0.176 C 
BRANCH  33  35
ATOM     34  C   PRO A   2      84.089  -7.552 128.937  0.00  0.00    +0.241 C 
ATOM     35  N   THR A   3      83.440  -6.398 128.808  0.00  0.00    -0.295 N 
ATOM     36  H   THR A   3      83.888  -5.519 129.136  0.00  0.00    +0.150 HD
ATOM     37  O   PRO A   2      83.611  -8.621 128.566  0.00  0.00    -0.273 OA
BRANCH  34  44
ATOM     38  C   PHE A   1      85.474  -8.509 131.766  0.00  0.00    +0.242 C 
ATOM     39  O   PHE A   1      84.751  -7.605 132.172  0.00  0.00    -0.273 OA
ATOM     40  N   PRO A   2      85.879  -8.556 130.481  0.00  0.00    -0.272 N 
ATOM     41  CD  PRO A   2      86.609  -9.634 129.772  0.00  0.00    +0.094 C 
ATOM     42  CG  PRO A   2      86.777  -9.064 128.335  0.00  0.00    +0.024 C 
ATOM     43  CB  PRO A   2      86.583  -7.545 128.490  0.00  0.00    +0.031 C 
ATOM     44  CA  PRO A   2      85.490  -7.480 129.555  0.00  0.00    +0.152 C 
BRANCH  38  45
ATOM     45  CA  PHE A   1      85.917  -9.637 132.721  0.00  0.00    +0.149 C 
BRANCH  45  46
ATOM     46  N   PHE A   1      86.570  -9.067 133.891  0.00  0.00    -0.238 NA
ATOM     47  H   PHE A   1      86.195  -9.285 134.836  0.00  0.00    +0.142 HD
ENDBRANCH  45  46
BRANCH  45  48
ATOM     48  CB  PHE A   1      84.817 -10.626 133.118  0.00  0.00    +0.053 C 
BRANCH  48  49
ATOM     49  CG  PHE A   1      84.193 -11.313 131.953  0.00  0.00    -0.020 A 
ATOM     50  CD2 PHE A   1      84.582 -12.614 131.605  0.00  0.00    -0.004 A 
ATOM     51  CE2 PHE A   1      84.020 -13.254 130.489  0.00  0.00    -0.000 A 
ATOM     52  CZ  PHE A   1      83.069 -12.593 129.722  0.00  0.00    -0.000 A 
ATOM     53  CE1 PHE A   1      82.676 -11.287 130.061  0.00  0.00    -0.000 A 
ATOM     54  CD1 PHE A   1      83.242 -10.656 131.175  0.00  0.00    -0.004 A 
ENDBRANCH  48  49
ENDBRANCH  45  48
ENDBRANCH  38  45
ENDBRANCH  34  44
ENDBRANCH  33  35
BRANCH  33  55
ATOM     55  CB  THR A   3      81.526  -4.899 128.321  0.00  0.00    +0.137 C 
ATOM     56  CG2 THR A   3      82.489  -3.880 127.775  0.00  0.00    +0.034 C 
BRANCH  55  57
ATOM     57  OG1 THR A   3      80.286  -4.825 127.617  0.00  0.00    -0.382 OA
ATOM     58  HG1 THR A   3      79.645  -5.468 128.012  0.00  0.00    +0.210 HD
ENDBRANCH  55  57
ENDBRANCH  33  55
ENDBRANCH   1  33
TORSDOF 23
REMARK  Name = ../refined-set-2016/3upk/3upk_pocket.pdb
REMARK  243 active torsions:
REMARK  status: ('A' for Active; 'I' for Inactive)
REMARK    1  A    between atoms: _1  and  _3
REMARK    2  A    between atoms: _3  and  _4
REMARK    3  A    between atoms: _3  and  _6
REMARK    4  A    between atoms: _6  and  _7
REMARK    5  A    between atoms: _7  and  _8
REMARK    6  A    between atoms: _8  and  _9
REMARK    7  A    between atoms: _9  and  _10
REMARK    8  A    between atoms: _16  and  _17
REMARK    9  A    between atoms: _16  and  _19
REMARK   10  A    between atoms: _19  and  _20
REMARK   11  A    between atoms: _25  and  _27
REMARK   12  A    between atoms: _27  and  _28
REMARK   13  A    between atoms: _31  and  _33
REMARK   14  A    between atoms: _33  and  _34
REMARK   15  A    between atoms: _33  and  _36
REMARK   16  A    between atoms: _36  and  _37
REMARK   17  A    between atoms: _41  and  _42
REMARK   18  A    between atoms: _47  and  _49
REMARK   19  A    between atoms: _49  and  _50
REMARK   20  A    between atoms: _49  and  _52
REMARK   21  A    between atoms: _52  and  _53
REMARK   22  A    between atoms: _59  and  _61
REMARK   23  A    between atoms: _61  and  _62
REMARK   24  A    between atoms: _61  and  _64
REMARK   25  A    between atoms: _64  and  _65
REMARK   26  A    between atoms: _68  and  _70
REMARK   27  A    between atoms: _70  and  _71
REMARK   28  A    between atoms: _70  and  _73
REMARK   29  A    between atoms: _73  and  _74
REMARK   30  A    between atoms: _74  and  _75
REMARK   31  A    between atoms: _77  and  _79
REMARK   32  A    between atoms: _79  and  _80
REMARK   33  A    between atoms: _79  and  _82
REMARK   34  A    between atoms: _82  and  _83
REMARK   35  A    between atoms: _83  and  _84
REMARK   36  A    between atoms: _84  and  _85
REMARK   37  A    between atoms: _94  and  _96
REMARK   38  A    between atoms: _96  and  _97
REMARK   39  A    between atoms: _100  and  _102
REMARK   40  A    between atoms: _102  and  _103
REMARK   41  A    between atoms: _102  and  _105
REMARK   42  A    between atoms: _105  and  _106
REMARK   43  A    between atoms: _108  and  _110
REMARK   44  A    between atoms: _110  and  _111
REMARK   45  A    between atoms: _110  and  _113
REMARK   46  A    between atoms: _113  and  _114
REMARK   47  A    between atoms: _117  and  _119
REMARK   48  A    between atoms: _119  and  _120
REMARK   49  A    between atoms: _119  and  _122
REMARK   50  A    between atoms: _122  and  _123
REMARK   51  A    between atoms: _133  and  _135
REMARK   52  A    between atoms: _135  and  _136
REMARK   53  A    between atoms: _135  and  _138
REMARK   54  A    between atoms: _138  and  _139
REMARK   55  A    between atoms: _142  and  _144
REMARK   56  A    between atoms: _144  and  _145
REMARK   57  A    between atoms: _147  and  _149
REMARK   58  A    between atoms: _149  and  _150
REMARK   59  A    between atoms: _153  and  _155
REMARK   60  A    between atoms: _155  and  _156
REMARK   61  A    between atoms: _155  and  _158
REMARK   62  A    between atoms: _158  and  _159
REMARK   63  A    between atoms: _159  and  _160
REMARK   64  A    between atoms: _160  and  _161
REMARK   65  A    between atoms: _171  and  _172
REMARK   66  A    between atoms: _177  and  _179
REMARK   67  A    between atoms: _179  and  _180
REMARK   68  A    between atoms: _179  and  _182
REMARK   69  A    between atoms: _185  and  _187
REMARK   70  A    between atoms: _187  and  _188
REMARK   71  A    between atoms: _187  and  _190
REMARK   72  A    between atoms: _190  and  _191
REMARK   73  A    between atoms: _194  and  _196
REMARK   74  A    between atoms: _196  and  _197
REMARK   75  A    between atoms: _196  and  _199
REMARK   76  A    between atoms: _199  and  _200
REMARK   77  A    between atoms: _203  and  _205
REMARK   78  A    between atoms: _205  and  _206
REMARK   79  A    between atoms: _205  and  _208
REMARK   80  A    between atoms: _208  and  _209
REMARK   81  A    between atoms: _214  and  _216
REMARK   82  A    between atoms: _216  and  _217
REMARK   83  A    between atoms: _216  and  _219
REMARK   84  A    between atoms: _219  and  _220
REMARK   85  A    between atoms: _223  and  _225
REMARK   86  A    between atoms: _225  and  _226
REMARK   87  A    between atoms: _225  and  _228
REMARK   88  A    between atoms: _228  and  _229
REMARK   89  A    between atoms: _235  and  _237
REMARK   90  A    between atoms: _237  and  _238
REMARK   91  A    between atoms: _240  and  _242
REMARK   92  A    between atoms: _242  and  _243
REMARK   93  A    between atoms: _242  and  _245
REMARK   94  A    between atoms: _245  and  _246
REMARK   95  A    between atoms: _246  and  _247
REMARK   96  A    between atoms: _249  and  _251
REMARK   97  A    between atoms: _251  and  _252
REMARK   98  A    between atoms: _251  and  _254
REMARK   99  A    between atoms: _254  and  _255
REMARK  100  A    between atoms: _258  and  _260
REMARK  101  A    between atoms: _260  and  _261
REMARK  102  A    between atoms: _260  and  _263
REMARK  103  A    between atoms: _263  and  _264
REMARK  104  A    between atoms: _264  and  _265
REMARK  105  A    between atoms: _265  and  _266
REMARK  106  A    between atoms: _266  and  _267
REMARK  107  A    between atoms: _271  and  _273
REMARK  108  A    between atoms: _273  and  _274
REMARK  109  A    between atoms: _273  and  _276
REMARK  110  A    between atoms: _279  and  _281
REMARK  111  A    between atoms: _281  and  _282
REMARK  112  A    between atoms: _281  and  _284
REMARK  113  A    between atoms: _284  and  _285
REMARK  114  A    between atoms: _287  and  _289
REMARK  115  A    between atoms: _289  and  _290
REMARK  116  A    between atoms: _289  and  _292
REMARK  117  A    between atoms: _295  and  _297
REMARK  118  A    between atoms: _297  and  _298
REMARK  119  A    between atoms: _300  and  _302
REMARK  120  A    between atoms: _302  and  _303
REMARK  121  A    between atoms: _306  and  _308
REMARK  122  A    between atoms: _308  and  _309
REMARK  123  A    between atoms: _308  and  _311
REMARK  124  A    between atoms: _311  and  _312
REMARK  125  A    between atoms: _315  and  _317
REMARK  126  A    between atoms: _317  and  _318
REMARK  127  A    between atoms: _317  and  _320
REMARK  128  A    between atoms: _323  and  _325
REMARK  129  A    between atoms: _325  and  _326
REMARK  130  A    between atoms: _325  and  _328
REMARK  131  A    between atoms: _328  and  _329
REMARK  132  A    between atoms: _332  and  _334
REMARK  133  A    between atoms: _334  and  _335
REMARK  134  A    between atoms: _338  and  _340
REMARK  135  A    between atoms: _340  and  _341
REMARK  136  A    between atoms: _340  and  _343
REMARK  137  A    between atoms: _343  and  _344
REMARK  138  A    between atoms: _344  and  _345
REMARK  139  A    between atoms: _345  and  _346
REMARK  140  A    between atoms: _355  and  _357
REMARK  141  A    between atoms: _357  and  _358
REMARK  142  A    between atoms: _357  and  _360
REMARK  143  A    between atoms: _360  and  _361
REMARK  144  A    between atoms: _361  and  _362
REMARK  145  A    between atoms: _365  and  _367
REMARK  146  A    between atoms: _367  and  _368
REMARK  147  A    between atoms: _367  and  _370
REMARK  148  A    between atoms: _370  and  _371
REMARK  149  A    between atoms: _371  and  _372
REMARK  150  A    between atoms: _375  and  _377
REMARK  151  A    between atoms: _377  and  _378
REMARK  152  A    between atoms: _377  and  _380
REMARK  153  A    between atoms: _380  and  _381
REMARK  154  A    between atoms: _384  and  _386
REMARK  155  A    between atoms: _386  and  _387
REMARK  156  A    between atoms: _386  and  _389
REMARK  157  A    between atoms: _389  and  _390
REMARK  158  A    between atoms: _390  and  _391
REMARK  159  A    between atoms: _391  and  _392
REMARK  160  A    between atoms: _401  and  _403
REMARK  161  A    between atoms: _403  and  _404
REMARK  162  A    between atoms: _403  and  _406
REMARK  163  A    between atoms: _406  and  _407
REMARK  164  A    between atoms: _410  and  _412
REMARK  165  A    between atoms: _412  and  _413
REMARK  166  A    between atoms: _412  and  _415
REMARK  167  A    between atoms: _415  and  _416
REMARK  168  A    between atoms: _419  and  _421
REMARK  169  A    between atoms: _421  and  _422
REMARK  170  A    between atoms: _426  and  _427
REMARK  171  A    between atoms: _432  and  _434
REMARK  172  A    between atoms: _434  and  _435
REMARK  173  A    between atoms: _434  and  _437
REMARK  174  A    between atoms: _437  and  _438
REMARK  175  A    between atoms: _443  and  _445
REMARK  176  A    between atoms: _445  and  _446
REMARK  177  A    between atoms: _445  and  _448
REMARK  178  A    between atoms: _448  and  _449
REMARK  179  A    between atoms: _456  and  _457
REMARK  180  A    between atoms: _462  and  _464
REMARK  181  A    between atoms: _464  and  _465
REMARK  182  A    between atoms: _464  and  _467
REMARK  183  A    between atoms: _467  and  _468
REMARK  184  A    between atoms: _471  and  _473
REMARK  185  A    between atoms: _473  and  _474
REMARK  186  A    between atoms: _473  and  _476
REMARK  187  A    between atoms: _476  and  _477
REMARK  188  A    between atoms: _480  and  _482
REMARK  189  A    between atoms: _482  and  _483
REMARK  190  A    between atoms: _482  and  _485
REMARK  191  A    between atoms: _485  and  _486
REMARK  192  A    between atoms: _486  and  _487
REMARK  193  A    between atoms: _489  and  _491
REMARK  194  A    between atoms: _491  and  _492
REMARK  195  A    between atoms: _491  and  _494
REMARK  196  A    between atoms: _494  and  _495
REMARK  197  A    between atoms: _495  and  _496
REMARK  198  A    between atoms: _501  and  _503
REMARK  199  A    between atoms: _503  and  _504
REMARK  200  A    between atoms: _503  and  _506
REMARK  201  A    between atoms: _506  and  _507
REMARK  202  A    between atoms: _507  and  _508
REMARK  203  A    between atoms: _511  and  _513
REMARK  204  A    between atoms: _513  and  _514
REMARK  205  A    between atoms: _513  and  _516
REMARK  206  A    between atoms: _516  and  _517
REMARK  207  A    between atoms: _520  and  _522
REMARK  208  A    between atoms: _522  and  _523
REMARK  209  A    between atoms: _522  and  _525
REMARK  210  A    between atoms: _525  and  _526
REMARK  211  A    between atoms: _529  and  _531
REMARK  212  A    between atoms: _531  and  _532
REMARK  213  A    between atoms: _531  and  _534
REMARK  214  A    between atoms: _534  and  _535
REMARK  215  A    between atoms: _543  and  _544
REMARK  216  A    between atoms: _543  and  _546
REMARK  217  A    between atoms: _546  and  _547
REMARK  218  A    between atoms: _547  and  _548
REMARK  219  A    between atoms: _551  and  _553
REMARK  220  A    between atoms: _553  and  _554
REMARK  221  A    between atoms: _553  and  _556
REMARK  222  A    between atoms: _556  and  _557
REMARK  223  A    between atoms: _562  and  _564
REMARK  224  A    between atoms: _564  and  _565
REMARK  225  A    between atoms: _564  and  _567
REMARK  226  A    between atoms: _567  and  _568
REMARK  227  A    between atoms: _568  and  _569
REMARK  228  A    between atoms: _569  and  _570
REMARK  229  A    between atoms: _579  and  _581
REMARK  230  A    between atoms: _581  and  _582
REMARK  231  A    between atoms: _581  and  _584
REMARK  232  A    between atoms: _584  and  _585
REMARK  233  A    between atoms: _590  and  _591
REMARK  234  A    between atoms: _590  and  _593
REMARK  235  A    between atoms: _593  and  _594
REMARK  236  A    between atoms: _597  and  _599
REMARK  237  A    between atoms: _599  and  _600
REMARK  238  A    between atoms: _599  and  _602
REMARK  239  A    between atoms: _602  and  _603
REMARK  240  A    between atoms: _603  and  _604
REMARK  241  A    between atoms: _604  and  _605
REMARK  242  A    between atoms: _614  and  _616
REMARK  243  A    between atoms: _616  and  _617
REMARK                            x       y       z     vdW  Elec       q    Type
REMARK                         _______ _______ _______ _____ _____    ______ ____
ROOT
ATOM      1  C   PHE A   4      75.641  -1.615 129.241  0.00  0.00    +0.244 C 
ATOM      2  N   GLU A   5      74.962  -0.928 130.145  0.00  0.00    -0.282 N 
ATOM      3  CA  GLU A   5      73.700  -1.413 130.693  0.00  0.00    +0.082 C 
ATOM      4  H   GLU A   5      75.339  -0.016 130.474  0.00  0.00    +0.155 HD
ATOM      5  O   PHE A   4      75.246  -2.695 128.778  0.00  0.00    -0.273 OA
ENDROOT
BRANCH   3   6
ATOM      6  C   GLU A   5      72.602  -2.024 129.822  0.00  0.00    +0.256 C 
ATOM      7  O   GLU A   5      71.828  -2.859 130.285  0.00  0.00    -0.269 OA
ATOM      8  N   ASN A   6      72.557  -1.611 128.564  0.00  0.00    -0.294 N 
ATOM      9  H   ASN A   6      73.263  -0.920 128.240  0.00  0.00    +0.150 HD
BRANCH   8  10
ATOM     10  CA  ASN A   6      71.555  -2.088 127.615  0.00  0.00    +0.158 C 
BRANCH  10  11
ATOM     11  C   ASN A   6      72.131  -3.049 126.572  0.00  0.00    +0.241 C 
ATOM     12  N   ARG A   7      73.346  -3.536 126.803  0.00  0.00    -0.298 N 
ATOM     13  H   ARG A   7      73.840  -3.270 127.678  0.00  0.00    +0.150 HD
ATOM     14  O   ASN A   6      71.482  -3.344 125.584  0.00  0.00    -0.273 OA
BRANCH  12  15
ATOM     15  CA  ARG A   7      74.007  -4.438 125.857  0.00  0.00    +0.137 C 
BRANCH  15  16
ATOM     16  C   ARG A   7      73.468  -5.881 125.873  0.00  0.00    +0.227 C 
ATOM     17  O   ARG A   7      74.222  -6.823 126.107  0.00  0.00    -0.286 OA
ENDBRANCH  15  16
BRANCH  15  18
ATOM     18  CB  ARG A   7      75.530  -4.350 125.945  0.00  0.00    +0.031 C 
BRANCH  18  19
ATOM     19  CG  ARG A   7      76.271  -4.922 124.737  0.00  0.00    +0.045 C 
BRANCH  19  20
ATOM     20  CD  ARG A   7      77.784  -4.867 124.935  0.00  0.00    +0.174 C 
BRANCH  20  21
ATOM     21  NE  ARG A   7      78.503  -4.956 123.666  0.00  0.00    -0.265 N 
ATOM     22  CZ  ARG A   7      79.830  -4.905 123.553  0.00  0.00    +0.342 C 
ATOM     23  NH2 ARG A   7      80.577  -4.770 124.638  0.00  0.00    -0.292 N 
ATOM     24 HH21 ARG A   7      80.128  -4.704 125.574  0.00  0.00    +0.255 HD
ATOM     25 HH22 ARG A   7      81.613  -4.730 124.554  0.00  0.00    +0.255 HD
ATOM     26  NH1 ARG A   7      80.405  -4.964 122.359  0.00  0.00    -0.292 N 
ATOM     27 HH11 ARG A   7      81.441  -4.924 122.278  0.00  0.00    +0.255 HD
ATOM     28 HH12 ARG A   7      79.820  -5.051 121.504  0.00  0.00    +0.255 HD
ATOM     29  HE  ARG A   7      77.944  -5.066 122.796  0.00  0.00    +0.259 HD
ENDBRANCH  20  21
ENDBRANCH  19  20
ENDBRANCH  18  19
ENDBRANCH  15  18
ENDBRANCH  12  15
ENDBRANCH  10  11
BRANCH  10  30
ATOM     30  CB  ASN A   6      70.772  -0.929 126.997  0.00  0.00    +0.114 C 
BRANCH  30  31
ATOM     31  CG  ASN A   6      69.544  -1.378 126.204  0.00  0.00    +0.222 C 
ATOM     32  ND2 ASN A   6      68.593  -2.038 126.873  0.00  0.00    -0.329 N 
ATOM     33 HD21 ASN A   6      68.718  -2.247 127.884  0.00  0.00    +0.145 HD
ATOM     34 HD22 ASN A   6      67.728  -2.343 126.382  0.00  0.00    +0.145 HD
ATOM     35  OD1 ASN A   6      69.445  -1.106 125.006  0.00  0.00    -0.275 OA
ENDBRANCH  30  31
ENDBRANCH  10  30
ENDBRANCH   8  10
ENDBRANCH   3   6
BRANCH   3  36
ATOM     36  CB  GLU A   5      73.215  -0.652 131.931  0.00  0.00    +0.058 C 
BRANCH  36  37
ATOM     37  CG  GLU A   5      74.242  -0.583 133.062  0.00  0.00    +0.120 C 
BRANCH  37  38
ATOM     38  CD  GLU A   5      73.723   0.192 134.272  0.00  0.00    +0.365 C 
ATOM     39  OE2 GLU A   5      73.754  -0.360 135.399  0.00  0.00    -0.246 OA
ATOM     40  OE1 GLU A   5      73.284   1.357 134.090  0.00  0.00    -0.246 OA
ENDBRANCH  37  38
ENDBRANCH  36  37
ENDBRANCH   3  36
BRANCH   1  41
ATOM     41  CA  PHE A   4      76.963  -1.000 128.797  0.00  0.00    +0.153 C 
BRANCH  41  44
ATOM     42  C   ILE A   3      78.636  -0.490 130.524  0.00  0.00    +0.241 C 
ATOM     43  O   ILE A   3      78.362   0.716 130.529  0.00  0.00    -0.273 OA
ATOM     44  N   PHE A   4      78.023  -1.368 129.738  0.00  0.00    -0.297 N 
ATOM     45  H   PHE A   4      78.310  -2.366 129.794  0.00  0.00    +0.150 HD
BRANCH  42  46
ATOM     46  CA  ILE A   3      79.732  -1.064 131.439  0.00  0.00    +0.149 C 
BRANCH  46  49
ATOM     47  C   THR A   2      78.825  -1.761 133.587  0.00  0.00    +0.243 C 
ATOM     48  O   THR A   2      78.873  -0.598 134.005  0.00  0.00    -0.273 OA
ATOM     49  N   ILE A   3      79.215  -2.092 132.354  0.00  0.00    -0.297 N 
ATOM     50  H   ILE A   3      79.153  -3.081 132.039  0.00  0.00    +0.150 HD
BRANCH  47  51
ATOM     51  CA  THR A   2      78.317  -2.884 134.498  0.00  0.00    +0.176 C 
BRANCH  51  53
ATOM     52  C   GLU A   1      76.945  -4.628 133.466  0.00  0.00    +0.238 C 
ATOM     53  N   THR A   2      78.161  -4.178 133.804  0.00  0.00    -0.295 N 
ATOM     54  H   THR A   2      79.002  -4.745 133.576  0.00  0.00    +0.150 HD
ATOM     55  O   GLU A   1      75.922  -4.024 133.753  0.00  0.00    -0.274 OA
BRANCH  52  56
ATOM     56  CA  GLU A   1      76.830  -5.972 132.730  0.00  0.00    +0.145 C 
BRANCH  56  57
ATOM     57  N   GLU A   1      76.155  -6.967 133.540  0.00  0.00    -0.238 NA
ATOM     58  H   GLU A   1      75.119  -6.923 133.616  0.00  0.00    +0.142 HD
ENDBRANCH  56  57
BRANCH  56  59
ATOM     59  CB  GLU A   1      76.166  -5.901 131.346  0.00  0.00    +0.038 C 
BRANCH  59  60
ATOM     60  CG  GLU A   1      76.648  -4.832 130.411  0.00  0.00    +0.116 C 
BRANCH  60  61
ATOM     61  CD  GLU A   1      78.045  -5.081 129.925  0.00  0.00    +0.365 C 
ATOM     62  OE2 GLU A   1      78.949  -4.400 130.435  0.00  0.00    -0.246 OA
ATOM     63  OE1 GLU A   1      78.229  -5.952 129.048  0.00  0.00    -0.246 OA
ENDBRANCH  60  61
ENDBRANCH  59  60
ENDBRANCH  56  59
ENDBRANCH  52  56
ENDBRANCH  51  53
BRANCH  51  64
ATOM     64  CB  THR A   2      79.304  -2.927 135.711  0.00  0.00    +0.137 C 
ATOM     65  CG2 THR A   2      78.924  -4.032 136.708  0.00  0.00    +0.034 C 
BRANCH  64  66
ATOM     66  OG1 THR A   2      80.643  -3.145 135.243  0.00  0.00    -0.382 OA
ATOM     67  HG1 THR A   2      80.685  -4.006 134.756  0.00  0.00    +0.210 HD
ENDBRANCH  64  66
ENDBRANCH  51  64
ENDBRANCH  47  51
ENDBRANCH  46  49
BRANCH  46  68
ATOM     68  CB  ILE A   3      80.881  -1.618 130.540  0.00  0.00    +0.027 C 
ATOM     69  CG2 ILE A   3      81.432  -0.487 129.646  0.00  0.00    +0.002 C 
BRANCH  68  70
ATOM     70  CG1 ILE A   3      82.002  -2.211 131.399  0.00  0.00    +0.002 C 
ATOM     71  CD1 ILE A   3      82.665  -1.210 132.337  0.00  0.00    +0.000 C 
ENDBRANCH  68  70
ENDBRANCH  46  68
ENDBRANCH  42  46
ENDBRANCH  41  44
BRANCH  41  72
ATOM     72  CB  PHE A   4      77.331  -1.345 127.361  0.00  0.00    +0.055 C 
BRANCH  72  73
ATOM     73  CG  PHE A   4      78.543  -0.606 126.850  0.00  0.00    -0.020 A 
ATOM     74  CD2 PHE A   4      78.549   0.787 126.788  0.00  0.00    -0.004 A 
ATOM     75  CE2 PHE A   4      79.678   1.480 126.324  0.00  0.00    -0.000 A 
ATOM     76  CZ  PHE A   4      80.806   0.772 125.914  0.00  0.00    -0.000 A 
ATOM     77  CE1 PHE A   4      80.804  -0.628 125.968  0.00  0.00    -0.000 A 
ATOM     78  CD1 PHE A   4      79.673  -1.302 126.438  0.00  0.00    -0.004 A 
ENDBRANCH  72  73
ENDBRANCH  41  72
ENDBRANCH   1  41
TORSDOF 31
REMARK  Name = ../refined-set-2016/3upk/3upk_pocket.pdb
REMARK  243 active torsions:
REMARK  status: ('A' for Active; 'I' for Inactive)
REMARK    1  A    between atoms: _1  and  _3
REMARK    2  A    between atoms: _3  and  _4
REMARK    3  A    between atoms: _3  and  _6
REMARK    4  A    between atoms: _6  and  _7
REMARK    5  A    between atoms: _7  and  _8
REMARK    6  A    between atoms: _8  and  _9
REMARK    7  A    between atoms: _9  and  _10
REMARK    8  A    between atoms: _16  and  _17
REMARK    9  A    between atoms: _16  and  _19
REMARK   10  A    between atoms: _19  and  _20
REMARK   11  A    between atoms: _25  and  _27
REMARK   12  A    between atoms: _27  and  _28
REMARK   13  A    between atoms: _31  and  _33
REMARK   14  A    between atoms: _33  and  _34
REMARK   15  A    between atoms: _33  and  _36
REMARK   16  A    between atoms: _36  and  _37
REMARK   17  A    between atoms: _41  and  _42
REMARK   18  A    between atoms: _47  and  _49
REMARK   19  A    between atoms: _49  and  _50
REMARK   20  A    between atoms: _49  and  _52
REMARK   21  A    between atoms: _52  and  _53
REMARK   22  A    between atoms: _59  and  _61
REMARK   23  A    between atoms: _61  and  _62
REMARK   24  A    between atoms: _61  and  _64
REMARK   25  A    between atoms: _64  and  _65
REMARK   26  A    between atoms: _68  and  _70
REMARK   27  A    between atoms: _70  and  _71
REMARK   28  A    between atoms: _70  and  _73
REMARK   29  A    between atoms: _73  and  _74
REMARK   30  A    between atoms: _74  and  _75
REMARK   31  A    between atoms: _77  and  _79
REMARK   32  A    between atoms: _79  and  _80
REMARK   33  A    between atoms: _79  and  _82
REMARK   34  A    between atoms: _82  and  _83
REMARK   35  A    between atoms: _83  and  _84
REMARK   36  A    between atoms: _84  and  _85
REMARK   37  A    between atoms: _94  and  _96
REMARK   38  A    between atoms: _96  and  _97
REMARK   39  A    between atoms: _100  and  _102
REMARK   40  A    between atoms: _102  and  _103
REMARK   41  A    between atoms: _102  and  _105
REMARK   42  A    between atoms: _105  and  _106
REMARK   43  A    between atoms: _108  and  _110
REMARK   44  A    between atoms: _110  and  _111
REMARK   45  A    between atoms: _110  and  _113
REMARK   46  A    between atoms: _113  and  _114
REMARK   47  A    between atoms: _117  and  _119
REMARK   48  A    between atoms: _119  and  _120
REMARK   49  A    between atoms: _119  and  _122
REMARK   50  A    between atoms: _122  and  _123
REMARK   51  A    between atoms: _133  and  _135
REMARK   52  A    between atoms: _135  and  _136
REMARK   53  A    between atoms: _135  and  _138
REMARK   54  A    between atoms: _138  and  _139
REMARK   55  A    between atoms: _142  and  _144
REMARK   56  A    between atoms: _144  and  _145
REMARK   57  A    between atoms: _147  and  _149
REMARK   58  A    between atoms: _149  and  _150
REMARK   59  A    between atoms: _153  and  _155
REMARK   60  A    between atoms: _155  and  _156
REMARK   61  A    between atoms: _155  and  _158
REMARK   62  A    between atoms: _158  and  _159
REMARK   63  A    between atoms: _159  and  _160
REMARK   64  A    between atoms: _160  and  _161
REMARK   65  A    between atoms: _171  and  _172
REMARK   66  A    between atoms: _177  and  _179
REMARK   67  A    between atoms: _179  and  _180
REMARK   68  A    between atoms: _179  and  _182
REMARK   69  A    between atoms: _185  and  _187
REMARK   70  A    between atoms: _187  and  _188
REMARK   71  A    between atoms: _187  and  _190
REMARK   72  A    between atoms: _190  and  _191
REMARK   73  A    between atoms: _194  and  _196
REMARK   74  A    between atoms: _196  and  _197
REMARK   75  A    between atoms: _196  and  _199
REMARK   76  A    between atoms: _199  and  _200
REMARK   77  A    between atoms: _203  and  _205
REMARK   78  A    between atoms: _205  and  _206
REMARK   79  A    between atoms: _205  and  _208
REMARK   80  A    between atoms: _208  and  _209
REMARK   81  A    between atoms: _214  and  _216
REMARK   82  A    between atoms: _216  and  _217
REMARK   83  A    between atoms: _216  and  _219
REMARK   84  A    between atoms: _219  and  _220
REMARK   85  A    between atoms: _223  and  _225
REMARK   86  A    between atoms: _225  and  _226
REMARK   87  A    between atoms: _225  and  _228
REMARK   88  A    between atoms: _228  and  _229
REMARK   89  A    between atoms: _235  and  _237
REMARK   90  A    between atoms: _237  and  _238
REMARK   91  A    between atoms: _240  and  _242
REMARK   92  A    between atoms: _242  and  _243
REMARK   93  A    between atoms: _242  and  _245
REMARK   94  A    between atoms: _245  and  _246
REMARK   95  A    between atoms: _246  and  _247
REMARK   96  A    between atoms: _249  and  _251
REMARK   97  A    between atoms: _251  and  _252
REMARK   98  A    between atoms: _251  and  _254
REMARK   99  A    between atoms: _254  and  _255
REMARK  100  A    between atoms: _258  and  _260
REMARK  101  A    between atoms: _260  and  _261
REMARK  102  A    between atoms: _260  and  _263
REMARK  103  A    between atoms: _263  and  _264
REMARK  104  A    between atoms: _264  and  _265
REMARK  105  A    between atoms: _265  and  _266
REMARK  106  A    between atoms: _266  and  _267
REMARK  107  A    between atoms: _271  and  _273
REMARK  108  A    between atoms: _273  and  _274
REMARK  109  A    between atoms: _273  and  _276
REMARK  110  A    between atoms: _279  and  _281
REMARK  111  A    between atoms: _281  and  _282
REMARK  112  A    between atoms: _281  and  _284
REMARK  113  A    between atoms: _284  and  _285
REMARK  114  A    between atoms: _287  and  _289
REMARK  115  A    between atoms: _289  and  _290
REMARK  116  A    between atoms: _289  and  _292
REMARK  117  A    between atoms: _295  and  _297
REMARK  118  A    between atoms: _297  and  _298
REMARK  119  A    between atoms: _300  and  _302
REMARK  120  A    between atoms: _302  and  _303
REMARK  121  A    between atoms: _306  and  _308
REMARK  122  A    between atoms: _308  and  _309
REMARK  123  A    between atoms: _308  and  _311
REMARK  124  A    between atoms: _311  and  _312
REMARK  125  A    between atoms: _315  and  _317
REMARK  126  A    between atoms: _317  and  _318
REMARK  127  A    between atoms: _317  and  _320
REMARK  128  A    between atoms: _323  and  _325
REMARK  129  A    between atoms: _325  and  _326
REMARK  130  A    between atoms: _325  and  _328
REMARK  131  A    between atoms: _328  and  _329
REMARK  132  A    between atoms: _332  and  _334
REMARK  133  A    between atoms: _334  and  _335
REMARK  134  A    between atoms: _338  and  _340
REMARK  135  A    between atoms: _340  and  _341
REMARK  136  A    between atoms: _340  and  _343
REMARK  137  A    between atoms: _343  and  _344
REMARK  138  A    between atoms: _344  and  _345
REMARK  139  A    between atoms: _345  and  _346
REMARK  140  A    between atoms: _355  and  _357
REMARK  141  A    between atoms: _357  and  _358
REMARK  142  A    between atoms: _357  and  _360
REMARK  143  A    between atoms: _360  and  _361
REMARK  144  A    between atoms: _361  and  _362
REMARK  145  A    between atoms: _365  and  _367
REMARK  146  A    between atoms: _367  and  _368
REMARK  147  A    between atoms: _367  and  _370
REMARK  148  A    between atoms: _370  and  _371
REMARK  149  A    between atoms: _371  and  _372
REMARK  150  A    between atoms: _375  and  _377
REMARK  151  A    between atoms: _377  and  _378
REMARK  152  A    between atoms: _377  and  _380
REMARK  153  A    between atoms: _380  and  _381
REMARK  154  A    between atoms: _384  and  _386
REMARK  155  A    between atoms: _386  and  _387
REMARK  156  A    between atoms: _386  and  _389
REMARK  157  A    between atoms: _389  and  _390
REMARK  158  A    between atoms: _390  and  _391
REMARK  159  A    between atoms: _391  and  _392
REMARK  160  A    between atoms: _401  and  _403
REMARK  161  A    between atoms: _403  and  _404
REMARK  162  A    between atoms: _403  and  _406
REMARK  163  A    between atoms: _406  and  _407
REMARK  164  A    between atoms: _410  and  _412
REMARK  165  A    between atoms: _412  and  _413
REMARK  166  A    between atoms: _412  and  _415
REMARK  167  A    between atoms: _415  and  _416
REMARK  168  A    between atoms: _419  and  _421
REMARK  169  A    between atoms: _421  and  _422
REMARK  170  A    between atoms: _426  and  _427
REMARK  171  A    between atoms: _432  and  _434
REMARK  172  A    between atoms: _434  and  _435
REMARK  173  A    between atoms: _434  and  _437
REMARK  174  A    between atoms: _437  and  _438
REMARK  175  A    between atoms: _443  and  _445
REMARK  176  A    between atoms: _445  and  _446
REMARK  177  A    between atoms: _445  and  _448
REMARK  178  A    between atoms: _448  and  _449
REMARK  179  A    between atoms: _456  and  _457
REMARK  180  A    between atoms: _462  and  _464
REMARK  181  A    between atoms: _464  and  _465
REMARK  182  A    between atoms: _464  and  _467
REMARK  183  A    between atoms: _467  and  _468
REMARK  184  A    between atoms: _471  and  _473
REMARK  185  A    between atoms: _473  and  _474
REMARK  186  A    between atoms: _473  and  _476
REMARK  187  A    between atoms: _476  and  _477
REMARK  188  A    between atoms: _480  and  _482
REMARK  189  A    between atoms: _482  and  _483
REMARK  190  A    between atoms: _482  and  _485
REMARK  191  A    between atoms: _485  and  _486
REMARK  192  A    between atoms: _486  and  _487
REMARK  193  A    between atoms: _489  and  _491
REMARK  194  A    between atoms: _491  and  _492
REMARK  195  A    between atoms: _491  and  _494
REMARK  196  A    between atoms: _494  and  _495
REMARK  197  A    between atoms: _495  and  _496
REMARK  198  A    between atoms: _501  and  _503
REMARK  199  A    between atoms: _503  and  _504
REMARK  200  A    between atoms: _503  and  _506
REMARK  201  A    between atoms: _506  and  _507
REMARK  202  A    between atoms: _507  and  _508
REMARK  203  A    between atoms: _511  and  _513
REMARK  204  A    between atoms: _513  and  _514
REMARK  205  A    between atoms: _513  and  _516
REMARK  206  A    between atoms: _516  and  _517
REMARK  207  A    between atoms: _520  and  _522
REMARK  208  A    between atoms: _522  and  _523
REMARK  209  A    between atoms: _522  and  _525
REMARK  210  A    between atoms: _525  and  _526
REMARK  211  A    between atoms: _529  and  _531
REMARK  212  A    between atoms: _531  and  _532
REMARK  213  A    between atoms: _531  and  _534
REMARK  214  A    between atoms: _534  and  _535
REMARK  215  A    between atoms: _543  and  _544
REMARK  216  A    between atoms: _543  and  _546
REMARK  217  A    between atoms: _546  and  _547
REMARK  218  A    between atoms: _547  and  _548
REMARK  219  A    between atoms: _551  and  _553
REMARK  220  A    between atoms: _553  and  _554
REMARK  221  A    between atoms: _553  and  _556
REMARK  222  A    between atoms: _556  and  _557
REMARK  223  A    between atoms: _562  and  _564
REMARK  224  A    between atoms: _564  and  _565
REMARK  225  A    between atoms: _564  and  _567
REMARK  226  A    between atoms: _567  and  _568
REMARK  227  A    between atoms: _568  and  _569
REMARK  228  A    between atoms: _569  and  _570
REMARK  229  A    between atoms: _579  and  _581
REMARK  230  A    between atoms: _581  and  _582
REMARK  231  A    between atoms: _581  and  _584
REMARK  232  A    between atoms: _584  and  _585
REMARK  233  A    between atoms: _590  and  _591
REMARK  234  A    between atoms: _590  and  _593
REMARK  235  A    between atoms: _593  and  _594
REMARK  236  A    between atoms: _597  and  _599
REMARK  237  A    between atoms: _599  and  _600
REMARK  238  A    between atoms: _599  and  _602
REMARK  239  A    between atoms: _602  and  _603
REMARK  240  A    between atoms: _603  and  _604
REMARK  241  A    between atoms: _604  and  _605
REMARK  242  A    between atoms: _614  and  _616
REMARK  243  A    between atoms: _616  and  _617
REMARK                            x       y       z     vdW  Elec       q    Type
REMARK                         _______ _______ _______ _____ _____    ______ ____
ROOT
ATOM      1  CA  ARG A   3      81.658  -7.363 118.752  0.00  0.00    +0.149 C 
ENDROOT
BRANCH   1   3
ATOM      2  C   LEU A   2      81.135  -6.197 116.676  0.00  0.00    +0.256 C 
ATOM      3  N   ARG A   3      80.877  -6.422 117.960  0.00  0.00    -0.294 N 
ATOM      4  H   ARG A   3      80.093  -5.911 118.414  0.00  0.00    +0.150 HD
ATOM      5  O   LEU A   2      82.052  -6.761 116.053  0.00  0.00    -0.269 OA
BRANCH   2  10
ATOM      6  C   ASP A   1      78.000  -5.672 116.919  0.00  0.00    +0.242 C 
ATOM      7  O   ASP A   1      78.137  -6.883 116.798  0.00  0.00    -0.273 OA
ATOM      8  N   LEU A   2      78.941  -4.796 116.573  0.00  0.00    -0.283 N 
ATOM      9  H   LEU A   2      78.754  -3.785 116.730  0.00  0.00    +0.155 HD
ATOM     10  CA  LEU A   2      80.233  -5.181 115.980  0.00  0.00    +0.081 C 
BRANCH   6  11
ATOM     11  CA  ASP A   1      76.698  -5.113 117.507  0.00  0.00    +0.156 C 
BRANCH  11  12
ATOM     12  N   ASP A   1      75.551  -5.549 116.700  0.00  0.00    -0.238 NA
ATOM     13  H   ASP A   1      75.400  -6.570 116.571  0.00  0.00    +0.142 HD
ENDBRANCH  11  12
BRANCH  11  14
ATOM     14  CB  ASP A   1      76.444  -5.513 118.986  0.00  0.00    +0.140 C 
BRANCH  14  15
ATOM     15  CG  ASP A   1      77.561  -5.126 119.930  0.00  0.00    +0.367 C 
ATOM     16  OD2 ASP A   1      77.218  -4.748 121.071  0.00  0.00    -0.246 OA
ATOM     17  OD1 ASP A   1      78.762  -5.212 119.581  0.00  0.00    -0.246 OA
ENDBRANCH  14  15
ENDBRANCH  11  14
ENDBRANCH   6  11
BRANCH  10  18
ATOM     18  CB  LEU A   2      81.006  -4.037 115.297  0.00  0.00    +0.046 C 
BRANCH  18  19
ATOM     19  CG  LEU A   2      81.455  -2.836 116.167  0.00  0.00    +0.006 C 
ATOM     20  CD2 LEU A   2      82.729  -3.202 116.940  0.00  0.00    +0.000 C 
ATOM     21  CD1 LEU A   2      81.746  -1.619 115.288  0.00  0.00    +0.000 C 
ENDBRANCH  18  19
ENDBRANCH  10  18
ENDBRANCH   2  10
ENDBRANCH   1   3
BRANCH   1  22
ATOM     22  C   ARG A   3      80.773  -8.465 119.321  0.00  0.00    +0.241 C 
ATOM     23  N   ALA A   4      79.619  -8.080 119.859  0.00  0.00    -0.298 N 
ATOM     24  H   ALA A   4      79.375  -7.069 119.876  0.00  0.00    +0.150 HD
ATOM     25  O   ARG A   3      81.127  -9.643 119.273  0.00  0.00    -0.273 OA
BRANCH  23  26
ATOM     26  CA  ALA A   4      78.691  -9.049 120.425  0.00  0.00    +0.137 C 
ATOM     27  CB  ALA A   4      77.636  -8.325 121.265  0.00  0.00    +0.030 C 
BRANCH  26  28
ATOM     28  C   ALA A   4      78.028  -9.959 119.404  0.00  0.00    +0.227 C 
ATOM     29  O   ALA A   4      77.930 -11.160 119.632  0.00  0.00    -0.286 OA
ENDBRANCH  26  28
ENDBRANCH  23  26
ENDBRANCH   1  22
BRANCH   1  30
ATOM     30  CB  ARG A   3      82.387  -6.636 119.884  0.00  0.00    +0.033 C 
BRANCH  30  31
ATOM     31  CG  ARG A   3      83.896  -6.819 119.870  0.00  0.00    +0.045 C 
BRANCH  31  32
ATOM     32  CD  ARG A   3      84.489  -6.410 118.531  0.00  0.00    +0.174 C 
BRANCH  32  33
ATOM     33  NE  ARG A   3      85.756  -7.084 118.266  0.00  0.00    -0.265 N 
ATOM     34  CZ  ARG A   3      86.933  -6.672 118.728  0.00  0.00    +0.342 C 
ATOM     35  NH2 ARG A   3      86.991  -5.887 119.795  0.00  0.00    -0.292 N 
ATOM     36 HH21 ARG A   3      86.115  -5.592 120.272  0.00  0.00    +0.255 HD
ATOM     37 HH22 ARG A   3      87.912  -5.566 120.155  0.00  0.00    +0.255 HD
ATOM     38  NH1 ARG A   3      88.052  -7.044 118.122  0.00  0.00    -0.292 N 
ATOM     39 HH11 ARG A   3      88.972  -6.721 118.484  0.00  0.00    +0.255 HD
ATOM     40 HH12 ARG A   3      88.010  -7.659 117.284  0.00  0.00    +0.255 HD
ATOM     41  HE  ARG A   3      85.737  -7.942 117.678  0.00  0.00    +0.259 HD
ENDBRANCH  32  33
ENDBRANCH  31  32
ENDBRANCH  30  31
ENDBRANCH   1  30
TORSDOF 15
REMARK  Name = ../refined-set-2016/3upk/3upk_pocket.pdb
REMARK  243 active torsions:
REMARK  status: ('A' for Active; 'I' for Inactive)
REMARK    1  A    between atoms: _1  and  _3
REMARK    2  A    between atoms: _3  and  _4
REMARK    3  A    between atoms: _3  and  _6
REMARK    4  A    between atoms: _6  and  _7
REMARK    5  A    between atoms: _7  and  _8
REMARK    6  A    between atoms: _8  and  _9
REMARK    7  A    between atoms: _9  and  _10
REMARK    8  A    between atoms: _16  and  _17
REMARK    9  A    between atoms: _16  and  _19
REMARK   10  A    between atoms: _19  and  _20
REMARK   11  A    between atoms: _25  and  _27
REMARK   12  A    between atoms: _27  and  _28
REMARK   13  A    between atoms: _31  and  _33
REMARK   14  A    between atoms: _33  and  _34
REMARK   15  A    between atoms: _33  and  _36
REMARK   16  A    between atoms: _36  and  _37
REMARK   17  A    between atoms: _41  and  _42
REMARK   18  A    between atoms: _47  and  _49
REMARK   19  A    between atoms: _49  and  _50
REMARK   20  A    between atoms: _49  and  _52
REMARK   21  A    between atoms: _52  and  _53
REMARK   22  A    between atoms: _59  and  _61
REMARK   23  A    between atoms: _61  and  _62
REMARK   24  A    between atoms: _61  and  _64
REMARK   25  A    between atoms: _64  and  _65
REMARK   26  A    between atoms: _68  and  _70
REMARK   27  A    between atoms: _70  and  _71
REMARK   28  A    between atoms: _70  and  _73
REMARK   29  A    between atoms: _73  and  _74
REMARK   30  A    between atoms: _74  and  _75
REMARK   31  A    between atoms: _77  and  _79
REMARK   32  A    between atoms: _79  and  _80
REMARK   33  A    between atoms: _79  and  _82
REMARK   34  A    between atoms: _82  and  _83
REMARK   35  A    between atoms: _83  and  _84
REMARK   36  A    between atoms: _84  and  _85
REMARK   37  A    between atoms: _94  and  _96
REMARK   38  A    between atoms: _96  and  _97
REMARK   39  A    between atoms: _100  and  _102
REMARK   40  A    between atoms: _102  and  _103
REMARK   41  A    between atoms: _102  and  _105
REMARK   42  A    between atoms: _105  and  _106
REMARK   43  A    between atoms: _108  and  _110
REMARK   44  A    between atoms: _110  and  _111
REMARK   45  A    between atoms: _110  and  _113
REMARK   46  A    between atoms: _113  and  _114
REMARK   47  A    between atoms: _117  and  _119
REMARK   48  A    between atoms: _119  and  _120
REMARK   49  A    between atoms: _119  and  _122
REMARK   50  A    between atoms: _122  and  _123
REMARK   51  A    between atoms: _133  and  _135
REMARK   52  A    between atoms: _135  and  _136
REMARK   53  A    between atoms: _135  and  _138
REMARK   54  A    between atoms: _138  and  _139
REMARK   55  A    between atoms: _142  and  _144
REMARK   56  A    between atoms: _144  and  _145
REMARK   57  A    between atoms: _147  and  _149
REMARK   58  A    between atoms: _149  and  _150
REMARK   59  A    between atoms: _153  and  _155
REMARK   60  A    between atoms: _155  and  _156
REMARK   61  A    between atoms: _155  and  _158
REMARK   62  A    between atoms: _158  and  _159
REMARK   63  A    between atoms: _159  and  _160
REMARK   64  A    between atoms: _160  and  _161
REMARK   65  A    between atoms: _171  and  _172
REMARK   66  A    between atoms: _177  and  _179
REMARK   67  A    between atoms: _179  and  _180
REMARK   68  A    between atoms: _179  and  _182
REMARK   69  A    between atoms: _185  and  _187
REMARK   70  A    between atoms: _187  and  _188
REMARK   71  A    between atoms: _187  and  _190
REMARK   72  A    between atoms: _190  and  _191
REMARK   73  A    between atoms: _194  and  _196
REMARK   74  A    between atoms: _196  and  _197
REMARK   75  A    between atoms: _196  and  _199
REMARK   76  A    between atoms: _199  and  _200
REMARK   77  A    between atoms: _203  and  _205
REMARK   78  A    between atoms: _205  and  _206
REMARK   79  A    between atoms: _205  and  _208
REMARK   80  A    between atoms: _208  and  _209
REMARK   81  A    between atoms: _214  and  _216
REMARK   82  A    between atoms: _216  and  _217
REMARK   83  A    between atoms: _216  and  _219
REMARK   84  A    between atoms: _219  and  _220
REMARK   85  A    between atoms: _223  and  _225
REMARK   86  A    between atoms: _225  and  _226
REMARK   87  A    between atoms: _225  and  _228
REMARK   88  A    between atoms: _228  and  _229
REMARK   89  A    between atoms: _235  and  _237
REMARK   90  A    between atoms: _237  and  _238
REMARK   91  A    between atoms: _240  and  _242
REMARK   92  A    between atoms: _242  and  _243
REMARK   93  A    between atoms: _242  and  _245
REMARK   94  A    between atoms: _245  and  _246
REMARK   95  A    between atoms: _246  and  _247
REMARK   96  A    between atoms: _249  and  _251
REMARK   97  A    between atoms: _251  and  _252
REMARK   98  A    between atoms: _251  and  _254
REMARK   99  A    between atoms: _254  and  _255
REMARK  100  A    between atoms: _258  and  _260
REMARK  101  A    between atoms: _260  and  _261
REMARK  102  A    between atoms: _260  and  _263
REMARK  103  A    between atoms: _263  and  _264
REMARK  104  A    between atoms: _264  and  _265
REMARK  105  A    between atoms: _265  and  _266
REMARK  106  A    between atoms: _266  and  _267
REMARK  107  A    between atoms: _271  and  _273
REMARK  108  A    between atoms: _273  and  _274
REMARK  109  A    between atoms: _273  and  _276
REMARK  110  A    between atoms: _279  and  _281
REMARK  111  A    between atoms: _281  and  _282
REMARK  112  A    between atoms: _281  and  _284
REMARK  113  A    between atoms: _284  and  _285
REMARK  114  A    between atoms: _287  and  _289
REMARK  115  A    between atoms: _289  and  _290
REMARK  116  A    between atoms: _289  and  _292
REMARK  117  A    between atoms: _295  and  _297
REMARK  118  A    between atoms: _297  and  _298
REMARK  119  A    between atoms: _300  and  _302
REMARK  120  A    between atoms: _302  and  _303
REMARK  121  A    between atoms: _306  and  _308
REMARK  122  A    between atoms: _308  and  _309
REMARK  123  A    between atoms: _308  and  _311
REMARK  124  A    between atoms: _311  and  _312
REMARK  125  A    between atoms: _315  and  _317
REMARK  126  A    between atoms: _317  and  _318
REMARK  127  A    between atoms: _317  and  _320
REMARK  128  A    between atoms: _323  and  _325
REMARK  129  A    between atoms: _325  and  _326
REMARK  130  A    between atoms: _325  and  _328
REMARK  131  A    between atoms: _328  and  _329
REMARK  132  A    between atoms: _332  and  _334
REMARK  133  A    between atoms: _334  and  _335
REMARK  134  A    between atoms: _338  and  _340
REMARK  135  A    between atoms: _340  and  _341
REMARK  136  A    between atoms: _340  and  _343
REMARK  137  A    between atoms: _343  and  _344
REMARK  138  A    between atoms: _344  and  _345
REMARK  139  A    between atoms: _345  and  _346
REMARK  140  A    between atoms: _355  and  _357
REMARK  141  A    between atoms: _357  and  _358
REMARK  142  A    between atoms: _357  and  _360
REMARK  143  A    between atoms: _360  and  _361
REMARK  144  A    between atoms: _361  and  _362
REMARK  145  A    between atoms: _365  and  _367
REMARK  146  A    between atoms: _367  and  _368
REMARK  147  A    between atoms: _367  and  _370
REMARK  148  A    between atoms: _370  and  _371
REMARK  149  A    between atoms: _371  and  _372
REMARK  150  A    between atoms: _375  and  _377
REMARK  151  A    between atoms: _377  and  _378
REMARK  152  A    between atoms: _377  and  _380
REMARK  153  A    between atoms: _380  and  _381
REMARK  154  A    between atoms: _384  and  _386
REMARK  155  A    between atoms: _386  and  _387
REMARK  156  A    between atoms: _386  and  _389
REMARK  157  A    between atoms: _389  and  _390
REMARK  158  A    between atoms: _390  and  _391
REMARK  159  A    between atoms: _391  and  _392
REMARK  160  A    between atoms: _401  and  _403
REMARK  161  A    between atoms: _403  and  _404
REMARK  162  A    between atoms: _403  and  _406
REMARK  163  A    between atoms: _406  and  _407
REMARK  164  A    between atoms: _410  and  _412
REMARK  165  A    between atoms: _412  and  _413
REMARK  166  A    between atoms: _412  and  _415
REMARK  167  A    between atoms: _415  and  _416
REMARK  168  A    between atoms: _419  and  _421
REMARK  169  A    between atoms: _421  and  _422
REMARK  170  A    between atoms: _426  and  _427
REMARK  171  A    between atoms: _432  and  _434
REMARK  172  A    between atoms: _434  and  _435
REMARK  173  A    between atoms: _434  and  _437
REMARK  174  A    between atoms: _437  and  _438
REMARK  175  A    between atoms: _443  and  _445
REMARK  176  A    between atoms: _445  and  _446
REMARK  177  A    between atoms: _445  and  _448
REMARK  178  A    between atoms: _448  and  _449
REMARK  179  A    between atoms: _456  and  _457
REMARK  180  A    between atoms: _462  and  _464
REMARK  181  A    between atoms: _464  and  _465
REMARK  182  A    between atoms: _464  and  _467
REMARK  183  A    between atoms: _467  and  _468
REMARK  184  A    between atoms: _471  and  _473
REMARK  185  A    between atoms: _473  and  _474
REMARK  186  A    between atoms: _473  and  _476
REMARK  187  A    between atoms: _476  and  _477
REMARK  188  A    between atoms: _480  and  _482
REMARK  189  A    between atoms: _482  and  _483
REMARK  190  A    between atoms: _482  and  _485
REMARK  191  A    between atoms: _485  and  _486
REMARK  192  A    between atoms: _486  and  _487
REMARK  193  A    between atoms: _489  and  _491
REMARK  194  A    between atoms: _491  and  _492
REMARK  195  A    between atoms: _491  and  _494
REMARK  196  A    between atoms: _494  and  _495
REMARK  197  A    between atoms: _495  and  _496
REMARK  198  A    between atoms: _501  and  _503
REMARK  199  A    between atoms: _503  and  _504
REMARK  200  A    between atoms: _503  and  _506
REMARK  201  A    between atoms: _506  and  _507
REMARK  202  A    between atoms: _507  and  _508
REMARK  203  A    between atoms: _511  and  _513
REMARK  204  A    between atoms: _513  and  _514
REMARK  205  A    between atoms: _513  and  _516
REMARK  206  A    between atoms: _516  and  _517
REMARK  207  A    between atoms: _520  and  _522
REMARK  208  A    between atoms: _522  and  _523
REMARK  209  A    between atoms: _522  and  _525
REMARK  210  A    between atoms: _525  and  _526
REMARK  211  A    between atoms: _529  and  _531
REMARK  212  A    between atoms: _531  and  _532
REMARK  213  A    between atoms: _531  and  _534
REMARK  214  A    between atoms: _534  and  _535
REMARK  215  A    between atoms: _543  and  _544
REMARK  216  A    between atoms: _543  and  _546
REMARK  217  A    between atoms: _546  and  _547
REMARK  218  A    between atoms: _547  and  _548
REMARK  219  A    between atoms: _551  and  _553
REMARK  220  A    between atoms: _553  and  _554
REMARK  221  A    between atoms: _553  and  _556
REMARK  222  A    between atoms: _556  and  _557
REMARK  223  A    between atoms: _562  and  _564
REMARK  224  A    between atoms: _564  and  _565
REMARK  225  A    between atoms: _564  and  _567
REMARK  226  A    between atoms: _567  and  _568
REMARK  227  A    between atoms: _568  and  _569
REMARK  228  A    between atoms: _569  and  _570
REMARK  229  A    between atoms: _579  and  _581
REMARK  230  A    between atoms: _581  and  _582
REMARK  231  A    between atoms: _581  and  _584
REMARK  232  A    between atoms: _584  and  _585
REMARK  233  A    between atoms: _590  and  _591
REMARK  234  A    between atoms: _590  and  _593
REMARK  235  A    between atoms: _593  and  _594
REMARK  236  A    between atoms: _597  and  _599
REMARK  237  A    between atoms: _599  and  _600
REMARK  238  A    between atoms: _599  and  _602
REMARK  239  A    between atoms: _602  and  _603
REMARK  240  A    between atoms: _603  and  _604
REMARK  241  A    between atoms: _604  and  _605
REMARK  242  A    between atoms: _614  and  _616
REMARK  243  A    between atoms: _616  and  _617
REMARK                            x       y       z     vdW  Elec       q    Type
REMARK                         _______ _______ _______ _____ _____    ______ ____
ROOT
ATOM      1  O   HOH     1      80.091  -8.992 124.007  0.00  0.00    +0.000 OA
ENDROOT
TORSDOF 0
REMARK  Name = ../refined-set-2016/3upk/3upk_pocket.pdb
REMARK  243 active torsions:
REMARK  status: ('A' for Active; 'I' for Inactive)
REMARK    1  A    between atoms: _1  and  _3
REMARK    2  A    between atoms: _3  and  _4
REMARK    3  A    between atoms: _3  and  _6
REMARK    4  A    between atoms: _6  and  _7
REMARK    5  A    between atoms: _7  and  _8
REMARK    6  A    between atoms: _8  and  _9
REMARK    7  A    between atoms: _9  and  _10
REMARK    8  A    between atoms: _16  and  _17
REMARK    9  A    between atoms: _16  and  _19
REMARK   10  A    between atoms: _19  and  _20
REMARK   11  A    between atoms: _25  and  _27
REMARK   12  A    between atoms: _27  and  _28
REMARK   13  A    between atoms: _31  and  _33
REMARK   14  A    between atoms: _33  and  _34
REMARK   15  A    between atoms: _33  and  _36
REMARK   16  A    between atoms: _36  and  _37
REMARK   17  A    between atoms: _41  and  _42
REMARK   18  A    between atoms: _47  and  _49
REMARK   19  A    between atoms: _49  and  _50
REMARK   20  A    between atoms: _49  and  _52
REMARK   21  A    between atoms: _52  and  _53
REMARK   22  A    between atoms: _59  and  _61
REMARK   23  A    between atoms: _61  and  _62
REMARK   24  A    between atoms: _61  and  _64
REMARK   25  A    between atoms: _64  and  _65
REMARK   26  A    between atoms: _68  and  _70
REMARK   27  A    between atoms: _70  and  _71
REMARK   28  A    between atoms: _70  and  _73
REMARK   29  A    between atoms: _73  and  _74
REMARK   30  A    between atoms: _74  and  _75
REMARK   31  A    between atoms: _77  and  _79
REMARK   32  A    between atoms: _79  and  _80
REMARK   33  A    between atoms: _79  and  _82
REMARK   34  A    between atoms: _82  and  _83
REMARK   35  A    between atoms: _83  and  _84
REMARK   36  A    between atoms: _84  and  _85
REMARK   37  A    between atoms: _94  and  _96
REMARK   38  A    between atoms: _96  and  _97
REMARK   39  A    between atoms: _100  and  _102
REMARK   40  A    between atoms: _102  and  _103
REMARK   41  A    between atoms: _102  and  _105
REMARK   42  A    between atoms: _105  and  _106
REMARK   43  A    between atoms: _108  and  _110
REMARK   44  A    between atoms: _110  and  _111
REMARK   45  A    between atoms: _110  and  _113
REMARK   46  A    between atoms: _113  and  _114
REMARK   47  A    between atoms: _117  and  _119
REMARK   48  A    between atoms: _119  and  _120
REMARK   49  A    between atoms: _119  and  _122
REMARK   50  A    between atoms: _122  and  _123
REMARK   51  A    between atoms: _133  and  _135
REMARK   52  A    between atoms: _135  and  _136
REMARK   53  A    between atoms: _135  and  _138
REMARK   54  A    between atoms: _138  and  _139
REMARK   55  A    between atoms: _142  and  _144
REMARK   56  A    between atoms: _144  and  _145
REMARK   57  A    between atoms: _147  and  _149
REMARK   58  A    between atoms: _149  and  _150
REMARK   59  A    between atoms: _153  and  _155
REMARK   60  A    between atoms: _155  and  _156
REMARK   61  A    between atoms: _155  and  _158
REMARK   62  A    between atoms: _158  and  _159
REMARK   63  A    between atoms: _159  and  _160
REMARK   64  A    between atoms: _160  and  _161
REMARK   65  A    between atoms: _171  and  _172
REMARK   66  A    between atoms: _177  and  _179
REMARK   67  A    between atoms: _179  and  _180
REMARK   68  A    between atoms: _179  and  _182
REMARK   69  A    between atoms: _185  and  _187
REMARK   70  A    between atoms: _187  and  _188
REMARK   71  A    between atoms: _187  and  _190
REMARK   72  A    between atoms: _190  and  _191
REMARK   73  A    between atoms: _194  and  _196
REMARK   74  A    between atoms: _196  and  _197
REMARK   75  A    between atoms: _196  and  _199
REMARK   76  A    between atoms: _199  and  _200
REMARK   77  A    between atoms: _203  and  _205
REMARK   78  A    between atoms: _205  and  _206
REMARK   79  A    between atoms: _205  and  _208
REMARK   80  A    between atoms: _208  and  _209
REMARK   81  A    between atoms: _214  and  _216
REMARK   82  A    between atoms: _216  and  _217
REMARK   83  A    between atoms: _216  and  _219
REMARK   84  A    between atoms: _219  and  _220
REMARK   85  A    between atoms: _223  and  _225
REMARK   86  A    between atoms: _225  and  _226
REMARK   87  A    between atoms: _225  and  _228
REMARK   88  A    between atoms: _228  and  _229
REMARK   89  A    between atoms: _235  and  _237
REMARK   90  A    between atoms: _237  and  _238
REMARK   91  A    between atoms: _240  and  _242
REMARK   92  A    between atoms: _242  and  _243
REMARK   93  A    between atoms: _242  and  _245
REMARK   94  A    between atoms: _245  and  _246
REMARK   95  A    between atoms: _246  and  _247
REMARK   96  A    between atoms: _249  and  _251
REMARK   97  A    between atoms: _251  and  _252
REMARK   98  A    between atoms: _251  and  _254
REMARK   99  A    between atoms: _254  and  _255
REMARK  100  A    between atoms: _258  and  _260
REMARK  101  A    between atoms: _260  and  _261
REMARK  102  A    between atoms: _260  and  _263
REMARK  103  A    between atoms: _263  and  _264
REMARK  104  A    between atoms: _264  and  _265
REMARK  105  A    between atoms: _265  and  _266
REMARK  106  A    between atoms: _266  and  _267
REMARK  107  A    between atoms: _271  and  _273
REMARK  108  A    between atoms: _273  and  _274
REMARK  109  A    between atoms: _273  and  _276
REMARK  110  A    between atoms: _279  and  _281
REMARK  111  A    between atoms: _281  and  _282
REMARK  112  A    between atoms: _281  and  _284
REMARK  113  A    between atoms: _284  and  _285
REMARK  114  A    between atoms: _287  and  _289
REMARK  115  A    between atoms: _289  and  _290
REMARK  116  A    between atoms: _289  and  _292
REMARK  117  A    between atoms: _295  and  _297
REMARK  118  A    between atoms: _297  and  _298
REMARK  119  A    between atoms: _300  and  _302
REMARK  120  A    between atoms: _302  and  _303
REMARK  121  A    between atoms: _306  and  _308
REMARK  122  A    between atoms: _308  and  _309
REMARK  123  A    between atoms: _308  and  _311
REMARK  124  A    between atoms: _311  and  _312
REMARK  125  A    between atoms: _315  and  _317
REMARK  126  A    between atoms: _317  and  _318
REMARK  127  A    between atoms: _317  and  _320
REMARK  128  A    between atoms: _323  and  _325
REMARK  129  A    between atoms: _325  and  _326
REMARK  130  A    between atoms: _325  and  _328
REMARK  131  A    between atoms: _328  and  _329
REMARK  132  A    between atoms: _332  and  _334
REMARK  133  A    between atoms: _334  and  _335
REMARK  134  A    between atoms: _338  and  _340
REMARK  135  A    between atoms: _340  and  _341
REMARK  136  A    between atoms: _340  and  _343
REMARK  137  A    between atoms: _343  and  _344
REMARK  138  A    between atoms: _344  and  _345
REMARK  139  A    between atoms: _345  and  _346
REMARK  140  A    between atoms: _355  and  _357
REMARK  141  A    between atoms: _357  and  _358
REMARK  142  A    between atoms: _357  and  _360
REMARK  143  A    between atoms: _360  and  _361
REMARK  144  A    between atoms: _361  and  _362
REMARK  145  A    between atoms: _365  and  _367
REMARK  146  A    between atoms: _367  and  _368
REMARK  147  A    between atoms: _367  and  _370
REMARK  148  A    between atoms: _370  and  _371
REMARK  149  A    between atoms: _371  and  _372
REMARK  150  A    between atoms: _375  and  _377
REMARK  151  A    between atoms: _377  and  _378
REMARK  152  A    between atoms: _377  and  _380
REMARK  153  A    between atoms: _380  and  _381
REMARK  154  A    between atoms: _384  and  _386
REMARK  155  A    between atoms: _386  and  _387
REMARK  156  A    between atoms: _386  and  _389
REMARK  157  A    between atoms: _389  and  _390
REMARK  158  A    between atoms: _390  and  _391
REMARK  159  A    between atoms: _391  and  _392
REMARK  160  A    between atoms: _401  and  _403
REMARK  161  A    between atoms: _403  and  _404
REMARK  162  A    between atoms: _403  and  _406
REMARK  163  A    between atoms: _406  and  _407
REMARK  164  A    between atoms: _410  and  _412
REMARK  165  A    between atoms: _412  and  _413
REMARK  166  A    between atoms: _412  and  _415
REMARK  167  A    between atoms: _415  and  _416
REMARK  168  A    between atoms: _419  and  _421
REMARK  169  A    between atoms: _421  and  _422
REMARK  170  A    between atoms: _426  and  _427
REMARK  171  A    between atoms: _432  and  _434
REMARK  172  A    between atoms: _434  and  _435
REMARK  173  A    between atoms: _434  and  _437
REMARK  174  A    between atoms: _437  and  _438
REMARK  175  A    between atoms: _443  and  _445
REMARK  176  A    between atoms: _445  and  _446
REMARK  177  A    between atoms: _445  and  _448
REMARK  178  A    between atoms: _448  and  _449
REMARK  179  A    between atoms: _456  and  _457
REMARK  180  A    between atoms: _462  and  _464
REMARK  181  A    between atoms: _464  and  _465
REMARK  182  A    between atoms: _464  and  _467
REMARK  183  A    between atoms: _467  and  _468
REMARK  184  A    between atoms: _471  and  _473
REMARK  185  A    between atoms: _473  and  _474
REMARK  186  A    between atoms: _473  and  _476
REMARK  187  A    between atoms: _476  and  _477
REMARK  188  A    between atoms: _480  and  _482
REMARK  189  A    between atoms: _482  and  _483
REMARK  190  A    between atoms: _482  and  _485
REMARK  191  A    between atoms: _485  and  _486
REMARK  192  A    between atoms: _486  and  _487
REMARK  193  A    between atoms: _489  and  _491
REMARK  194  A    between atoms: _491  and  _492
REMARK  195  A    between atoms: _491  and  _494
REMARK  196  A    between atoms: _494  and  _495
REMARK  197  A    between atoms: _495  and  _496
REMARK  198  A    between atoms: _501  and  _503
REMARK  199  A    between atoms: _503  and  _504
REMARK  200  A    between atoms: _503  and  _506
REMARK  201  A    between atoms: _506  and  _507
REMARK  202  A    between atoms: _507  and  _508
REMARK  203  A    between atoms: _511  and  _513
REMARK  204  A    between atoms: _513  and  _514
REMARK  205  A    between atoms: _513  and  _516
REMARK  206  A    between atoms: _516  and  _517
REMARK  207  A    between atoms: _520  and  _522
REMARK  208  A    between atoms: _522  and  _523
REMARK  209  A    between atoms: _522  and  _525
REMARK  210  A    between atoms: _525  and  _526
REMARK  211  A    between atoms: _529  and  _531
REMARK  212  A    between atoms: _531  and  _532
REMARK  213  A    between atoms: _531  and  _534
REMARK  214  A    between atoms: _534  and  _535
REMARK  215  A    between atoms: _543  and  _544
REMARK  216  A    between atoms: _543  and  _546
REMARK  217  A    between atoms: _546  and  _547
REMARK  218  A    between atoms: _547  and  _548
REMARK  219  A    between atoms: _551  and  _553
REMARK  220  A    between atoms: _553  and  _554
REMARK  221  A    between atoms: _553  and  _556
REMARK  222  A    between atoms: _556  and  _557
REMARK  223  A    between atoms: _562  and  _564
REMARK  224  A    between atoms: _564  and  _565
REMARK  225  A    between atoms: _564  and  _567
REMARK  226  A    between atoms: _567  and  _568
REMARK  227  A    between atoms: _568  and  _569
REMARK  228  A    between atoms: _569  and  _570
REMARK  229  A    between atoms: _579  and  _581
REMARK  230  A    between atoms: _581  and  _582
REMARK  231  A    between atoms: _581  and  _584
REMARK  232  A    between atoms: _584  and  _585
REMARK  233  A    between atoms: _590  and  _591
REMARK  234  A    between atoms: _590  and  _593
REMARK  235  A    between atoms: _593  and  _594
REMARK  236  A    between atoms: _597  and  _599
REMARK  237  A    between atoms: _599  and  _600
REMARK  238  A    between atoms: _599  and  _602
REMARK  239  A    between atoms: _602  and  _603
REMARK  240  A    between atoms: _603  and  _604
REMARK  241  A    between atoms: _604  and  _605
REMARK  242  A    between atoms: _614  and  _616
REMARK  243  A    between atoms: _616  and  _617
REMARK                            x       y       z     vdW  Elec       q    Type
REMARK                         _______ _______ _______ _____ _____    ______ ____
ROOT
ATOM      1  O   HOH     1      90.338  -1.034 124.789  0.00  0.00    +0.000 OA
ENDROOT
TORSDOF 0
REMARK  Name = ../refined-set-2016/3upk/3upk_pocket.pdb
REMARK  243 active torsions:
REMARK  status: ('A' for Active; 'I' for Inactive)
REMARK    1  A    between atoms: _1  and  _3
REMARK    2  A    between atoms: _3  and  _4
REMARK    3  A    between atoms: _3  and  _6
REMARK    4  A    between atoms: _6  and  _7
REMARK    5  A    between atoms: _7  and  _8
REMARK    6  A    between atoms: _8  and  _9
REMARK    7  A    between atoms: _9  and  _10
REMARK    8  A    between atoms: _16  and  _17
REMARK    9  A    between atoms: _16  and  _19
REMARK   10  A    between atoms: _19  and  _20
REMARK   11  A    between atoms: _25  and  _27
REMARK   12  A    between atoms: _27  and  _28
REMARK   13  A    between atoms: _31  and  _33
REMARK   14  A    between atoms: _33  and  _34
REMARK   15  A    between atoms: _33  and  _36
REMARK   16  A    between atoms: _36  and  _37
REMARK   17  A    between atoms: _41  and  _42
REMARK   18  A    between atoms: _47  and  _49
REMARK   19  A    between atoms: _49  and  _50
REMARK   20  A    between atoms: _49  and  _52
REMARK   21  A    between atoms: _52  and  _53
REMARK   22  A    between atoms: _59  and  _61
REMARK   23  A    between atoms: _61  and  _62
REMARK   24  A    between atoms: _61  and  _64
REMARK   25  A    between atoms: _64  and  _65
REMARK   26  A    between atoms: _68  and  _70
REMARK   27  A    between atoms: _70  and  _71
REMARK   28  A    between atoms: _70  and  _73
REMARK   29  A    between atoms: _73  and  _74
REMARK   30  A    between atoms: _74  and  _75
REMARK   31  A    between atoms: _77  and  _79
REMARK   32  A    between atoms: _79  and  _80
REMARK   33  A    between atoms: _79  and  _82
REMARK   34  A    between atoms: _82  and  _83
REMARK   35  A    between atoms: _83  and  _84
REMARK   36  A    between atoms: _84  and  _85
REMARK   37  A    between atoms: _94  and  _96
REMARK   38  A    between atoms: _96  and  _97
REMARK   39  A    between atoms: _100  and  _102
REMARK   40  A    between atoms: _102  and  _103
REMARK   41  A    between atoms: _102  and  _105
REMARK   42  A    between atoms: _105  and  _106
REMARK   43  A    between atoms: _108  and  _110
REMARK   44  A    between atoms: _110  and  _111
REMARK   45  A    between atoms: _110  and  _113
REMARK   46  A    between atoms: _113  and  _114
REMARK   47  A    between atoms: _117  and  _119
REMARK   48  A    between atoms: _119  and  _120
REMARK   49  A    between atoms: _119  and  _122
REMARK   50  A    between atoms: _122  and  _123
REMARK   51  A    between atoms: _133  and  _135
REMARK   52  A    between atoms: _135  and  _136
REMARK   53  A    between atoms: _135  and  _138
REMARK   54  A    between atoms: _138  and  _139
REMARK   55  A    between atoms: _142  and  _144
REMARK   56  A    between atoms: _144  and  _145
REMARK   57  A    between atoms: _147  and  _149
REMARK   58  A    between atoms: _149  and  _150
REMARK   59  A    between atoms: _153  and  _155
REMARK   60  A    between atoms: _155  and  _156
REMARK   61  A    between atoms: _155  and  _158
REMARK   62  A    between atoms: _158  and  _159
REMARK   63  A    between atoms: _159  and  _160
REMARK   64  A    between atoms: _160  and  _161
REMARK   65  A    between atoms: _171  and  _172
REMARK   66  A    between atoms: _177  and  _179
REMARK   67  A    between atoms: _179  and  _180
REMARK   68  A    between atoms: _179  and  _182
REMARK   69  A    between atoms: _185  and  _187
REMARK   70  A    between atoms: _187  and  _188
REMARK   71  A    between atoms: _187  and  _190
REMARK   72  A    between atoms: _190  and  _191
REMARK   73  A    between atoms: _194  and  _196
REMARK   74  A    between atoms: _196  and  _197
REMARK   75  A    between atoms: _196  and  _199
REMARK   76  A    between atoms: _199  and  _200
REMARK   77  A    between atoms: _203  and  _205
REMARK   78  A    between atoms: _205  and  _206
REMARK   79  A    between atoms: _205  and  _208
REMARK   80  A    between atoms: _208  and  _209
REMARK   81  A    between atoms: _214  and  _216
REMARK   82  A    between atoms: _216  and  _217
REMARK   83  A    between atoms: _216  and  _219
REMARK   84  A    between atoms: _219  and  _220
REMARK   85  A    between atoms: _223  and  _225
REMARK   86  A    between atoms: _225  and  _226
REMARK   87  A    between atoms: _225  and  _228
REMARK   88  A    between atoms: _228  and  _229
REMARK   89  A    between atoms: _235  and  _237
REMARK   90  A    between atoms: _237  and  _238
REMARK   91  A    between atoms: _240  and  _242
REMARK   92  A    between atoms: _242  and  _243
REMARK   93  A    between atoms: _242  and  _245
REMARK   94  A    between atoms: _245  and  _246
REMARK   95  A    between atoms: _246  and  _247
REMARK   96  A    between atoms: _249  and  _251
REMARK   97  A    between atoms: _251  and  _252
REMARK   98  A    between atoms: _251  and  _254
REMARK   99  A    between atoms: _254  and  _255
REMARK  100  A    between atoms: _258  and  _260
REMARK  101  A    between atoms: _260  and  _261
REMARK  102  A    between atoms: _260  and  _263
REMARK  103  A    between atoms: _263  and  _264
REMARK  104  A    between atoms: _264  and  _265
REMARK  105  A    between atoms: _265  and  _266
REMARK  106  A    between atoms: _266  and  _267
REMARK  107  A    between atoms: _271  and  _273
REMARK  108  A    between atoms: _273  and  _274
REMARK  109  A    between atoms: _273  and  _276
REMARK  110  A    between atoms: _279  and  _281
REMARK  111  A    between atoms: _281  and  _282
REMARK  112  A    between atoms: _281  and  _284
REMARK  113  A    between atoms: _284  and  _285
REMARK  114  A    between atoms: _287  and  _289
REMARK  115  A    between atoms: _289  and  _290
REMARK  116  A    between atoms: _289  and  _292
REMARK  117  A    between atoms: _295  and  _297
REMARK  118  A    between atoms: _297  and  _298
REMARK  119  A    between atoms: _300  and  _302
REMARK  120  A    between atoms: _302  and  _303
REMARK  121  A    between atoms: _306  and  _308
REMARK  122  A    between atoms: _308  and  _309
REMARK  123  A    between atoms: _308  and  _311
REMARK  124  A    between atoms: _311  and  _312
REMARK  125  A    between atoms: _315  and  _317
REMARK  126  A    between atoms: _317  and  _318
REMARK  127  A    between atoms: _317  and  _320
REMARK  128  A    between atoms: _323  and  _325
REMARK  129  A    between atoms: _325  and  _326
REMARK  130  A    between atoms: _325  and  _328
REMARK  131  A    between atoms: _328  and  _329
REMARK  132  A    between atoms: _332  and  _334
REMARK  133  A    between atoms: _334  and  _335
REMARK  134  A    between atoms: _338  and  _340
REMARK  135  A    between atoms: _340  and  _341
REMARK  136  A    between atoms: _340  and  _343
REMARK  137  A    between atoms: _343  and  _344
REMARK  138  A    between atoms: _344  and  _345
REMARK  139  A    between atoms: _345  and  _346
REMARK  140  A    between atoms: _355  and  _357
REMARK  141  A    between atoms: _357  and  _358
REMARK  142  A    between atoms: _357  and  _360
REMARK  143  A    between atoms: _360  and  _361
REMARK  144  A    between atoms: _361  and  _362
REMARK  145  A    between atoms: _365  and  _367
REMARK  146  A    between atoms: _367  and  _368
REMARK  147  A    between atoms: _367  and  _370
REMARK  148  A    between atoms: _370  and  _371
REMARK  149  A    between atoms: _371  and  _372
REMARK  150  A    between atoms: _375  and  _377
REMARK  151  A    between atoms: _377  and  _378
REMARK  152  A    between atoms: _377  and  _380
REMARK  153  A    between atoms: _380  and  _381
REMARK  154  A    between atoms: _384  and  _386
REMARK  155  A    between atoms: _386  and  _387
REMARK  156  A    between atoms: _386  and  _389
REMARK  157  A    between atoms: _389  and  _390
REMARK  158  A    between atoms: _390  and  _391
REMARK  159  A    between atoms: _391  and  _392
REMARK  160  A    between atoms: _401  and  _403
REMARK  161  A    between atoms: _403  and  _404
REMARK  162  A    between atoms: _403  and  _406
REMARK  163  A    between atoms: _406  and  _407
REMARK  164  A    between atoms: _410  and  _412
REMARK  165  A    between atoms: _412  and  _413
REMARK  166  A    between atoms: _412  and  _415
REMARK  167  A    between atoms: _415  and  _416
REMARK  168  A    between atoms: _419  and  _421
REMARK  169  A    between atoms: _421  and  _422
REMARK  170  A    between atoms: _426  and  _427
REMARK  171  A    between atoms: _432  and  _434
REMARK  172  A    between atoms: _434  and  _435
REMARK  173  A    between atoms: _434  and  _437
REMARK  174  A    between atoms: _437  and  _438
REMARK  175  A    between atoms: _443  and  _445
REMARK  176  A    between atoms: _445  and  _446
REMARK  177  A    between atoms: _445  and  _448
REMARK  178  A    between atoms: _448  and  _449
REMARK  179  A    between atoms: _456  and  _457
REMARK  180  A    between atoms: _462  and  _464
REMARK  181  A    between atoms: _464  and  _465
REMARK  182  A    between atoms: _464  and  _467
REMARK  183  A    between atoms: _467  and  _468
REMARK  184  A    between atoms: _471  and  _473
REMARK  185  A    between atoms: _473  and  _474
REMARK  186  A    between atoms: _473  and  _476
REMARK  187  A    between atoms: _476  and  _477
REMARK  188  A    between atoms: _480  and  _482
REMARK  189  A    between atoms: _482  and  _483
REMARK  190  A    between atoms: _482  and  _485
REMARK  191  A    between atoms: _485  and  _486
REMARK  192  A    between atoms: _486  and  _487
REMARK  193  A    between atoms: _489  and  _491
REMARK  194  A    between atoms: _491  and  _492
REMARK  195  A    between atoms: _491  and  _494
REMARK  196  A    between atoms: _494  and  _495
REMARK  197  A    between atoms: _495  and  _496
REMARK  198  A    between atoms: _501  and  _503
REMARK  199  A    between atoms: _503  and  _504
REMARK  200  A    between atoms: _503  and  _506
REMARK  201  A    between atoms: _506  and  _507
REMARK  202  A    between atoms: _507  and  _508
REMARK  203  A    between atoms: _511  and  _513
REMARK  204  A    between atoms: _513  and  _514
REMARK  205  A    between atoms: _513  and  _516
REMARK  206  A    between atoms: _516  and  _517
REMARK  207  A    between atoms: _520  and  _522
REMARK  208  A    between atoms: _522  and  _523
REMARK  209  A    between atoms: _522  and  _525
REMARK  210  A    between atoms: _525  and  _526
REMARK  211  A    between atoms: _529  and  _531
REMARK  212  A    between atoms: _531  and  _532
REMARK  213  A    between atoms: _531  and  _534
REMARK  214  A    between atoms: _534  and  _535
REMARK  215  A    between atoms: _543  and  _544
REMARK  216  A    between atoms: _543  and  _546
REMARK  217  A    between atoms: _546  and  _547
REMARK  218  A    between atoms: _547  and  _548
REMARK  219  A    between atoms: _551  and  _553
REMARK  220  A    between atoms: _553  and  _554
REMARK  221  A    between atoms: _553  and  _556
REMARK  222  A    between atoms: _556  and  _557
REMARK  223  A    between atoms: _562  and  _564
REMARK  224  A    between atoms: _564  and  _565
REMARK  225  A    between atoms: _564  and  _567
REMARK  226  A    between atoms: _567  and  _568
REMARK  227  A    between atoms: _568  and  _569
REMARK  228  A    between atoms: _569  and  _570
REMARK  229  A    between atoms: _579  and  _581
REMARK  230  A    between atoms: _581  and  _582
REMARK  231  A    between atoms: _581  and  _584
REMARK  232  A    between atoms: _584  and  _585
REMARK  233  A    between atoms: _590  and  _591
REMARK  234  A    between atoms: _590  and  _593
REMARK  235  A    between atoms: _593  and  _594
REMARK  236  A    between atoms: _597  and  _599
REMARK  237  A    between atoms: _599  and  _600
REMARK  238  A    between atoms: _599  and  _602
REMARK  239  A    between atoms: _602  and  _603
REMARK  240  A    between atoms: _603  and  _604
REMARK  241  A    between atoms: _604  and  _605
REMARK  242  A    between atoms: _614  and  _616
REMARK  243  A    between atoms: _616  and  _617
REMARK                            x       y       z     vdW  Elec       q    Type
REMARK                         _______ _______ _______ _____ _____    ______ ____
ROOT
ATOM      1  O   HOH     1      88.106  -4.509 128.441  0.00  0.00    +0.000 OA
ENDROOT
TORSDOF 0
REMARK  Name = ../refined-set-2016/3upk/3upk_pocket.pdb
REMARK  243 active torsions:
REMARK  status: ('A' for Active; 'I' for Inactive)
REMARK    1  A    between atoms: _1  and  _3
REMARK    2  A    between atoms: _3  and  _4
REMARK    3  A    between atoms: _3  and  _6
REMARK    4  A    between atoms: _6  and  _7
REMARK    5  A    between atoms: _7  and  _8
REMARK    6  A    between atoms: _8  and  _9
REMARK    7  A    between atoms: _9  and  _10
REMARK    8  A    between atoms: _16  and  _17
REMARK    9  A    between atoms: _16  and  _19
REMARK   10  A    between atoms: _19  and  _20
REMARK   11  A    between atoms: _25  and  _27
REMARK   12  A    between atoms: _27  and  _28
REMARK   13  A    between atoms: _31  and  _33
REMARK   14  A    between atoms: _33  and  _34
REMARK   15  A    between atoms: _33  and  _36
REMARK   16  A    between atoms: _36  and  _37
REMARK   17  A    between atoms: _41  and  _42
REMARK   18  A    between atoms: _47  and  _49
REMARK   19  A    between atoms: _49  and  _50
REMARK   20  A    between atoms: _49  and  _52
REMARK   21  A    between atoms: _52  and  _53
REMARK   22  A    between atoms: _59  and  _61
REMARK   23  A    between atoms: _61  and  _62
REMARK   24  A    between atoms: _61  and  _64
REMARK   25  A    between atoms: _64  and  _65
REMARK   26  A    between atoms: _68  and  _70
REMARK   27  A    between atoms: _70  and  _71
REMARK   28  A    between atoms: _70  and  _73
REMARK   29  A    between atoms: _73  and  _74
REMARK   30  A    between atoms: _74  and  _75
REMARK   31  A    between atoms: _77  and  _79
REMARK   32  A    between atoms: _79  and  _80
REMARK   33  A    between atoms: _79  and  _82
REMARK   34  A    between atoms: _82  and  _83
REMARK   35  A    between atoms: _83  and  _84
REMARK   36  A    between atoms: _84  and  _85
REMARK   37  A    between atoms: _94  and  _96
REMARK   38  A    between atoms: _96  and  _97
REMARK   39  A    between atoms: _100  and  _102
REMARK   40  A    between atoms: _102  and  _103
REMARK   41  A    between atoms: _102  and  _105
REMARK   42  A    between atoms: _105  and  _106
REMARK   43  A    between atoms: _108  and  _110
REMARK   44  A    between atoms: _110  and  _111
REMARK   45  A    between atoms: _110  and  _113
REMARK   46  A    between atoms: _113  and  _114
REMARK   47  A    between atoms: _117  and  _119
REMARK   48  A    between atoms: _119  and  _120
REMARK   49  A    between atoms: _119  and  _122
REMARK   50  A    between atoms: _122  and  _123
REMARK   51  A    between atoms: _133  and  _135
REMARK   52  A    between atoms: _135  and  _136
REMARK   53  A    between atoms: _135  and  _138
REMARK   54  A    between atoms: _138  and  _139
REMARK   55  A    between atoms: _142  and  _144
REMARK   56  A    between atoms: _144  and  _145
REMARK   57  A    between atoms: _147  and  _149
REMARK   58  A    between atoms: _149  and  _150
REMARK   59  A    between atoms: _153  and  _155
REMARK   60  A    between atoms: _155  and  _156
REMARK   61  A    between atoms: _155  and  _158
REMARK   62  A    between atoms: _158  and  _159
REMARK   63  A    between atoms: _159  and  _160
REMARK   64  A    between atoms: _160  and  _161
REMARK   65  A    between atoms: _171  and  _172
REMARK   66  A    between atoms: _177  and  _179
REMARK   67  A    between atoms: _179  and  _180
REMARK   68  A    between atoms: _179  and  _182
REMARK   69  A    between atoms: _185  and  _187
REMARK   70  A    between atoms: _187  and  _188
REMARK   71  A    between atoms: _187  and  _190
REMARK   72  A    between atoms: _190  and  _191
REMARK   73  A    between atoms: _194  and  _196
REMARK   74  A    between atoms: _196  and  _197
REMARK   75  A    between atoms: _196  and  _199
REMARK   76  A    between atoms: _199  and  _200
REMARK   77  A    between atoms: _203  and  _205
REMARK   78  A    between atoms: _205  and  _206
REMARK   79  A    between atoms: _205  and  _208
REMARK   80  A    between atoms: _208  and  _209
REMARK   81  A    between atoms: _214  and  _216
REMARK   82  A    between atoms: _216  and  _217
REMARK   83  A    between atoms: _216  and  _219
REMARK   84  A    between atoms: _219  and  _220
REMARK   85  A    between atoms: _223  and  _225
REMARK   86  A    between atoms: _225  and  _226
REMARK   87  A    between atoms: _225  and  _228
REMARK   88  A    between atoms: _228  and  _229
REMARK   89  A    between atoms: _235  and  _237
REMARK   90  A    between atoms: _237  and  _238
REMARK   91  A    between atoms: _240  and  _242
REMARK   92  A    between atoms: _242  and  _243
REMARK   93  A    between atoms: _242  and  _245
REMARK   94  A    between atoms: _245  and  _246
REMARK   95  A    between atoms: _246  and  _247
REMARK   96  A    between atoms: _249  and  _251
REMARK   97  A    between atoms: _251  and  _252
REMARK   98  A    between atoms: _251  and  _254
REMARK   99  A    between atoms: _254  and  _255
REMARK  100  A    between atoms: _258  and  _260
REMARK  101  A    between atoms: _260  and  _261
REMARK  102  A    between atoms: _260  and  _263
REMARK  103  A    between atoms: _263  and  _264
REMARK  104  A    between atoms: _264  and  _265
REMARK  105  A    between atoms: _265  and  _266
REMARK  106  A    between atoms: _266  and  _267
REMARK  107  A    between atoms: _271  and  _273
REMARK  108  A    between atoms: _273  and  _274
REMARK  109  A    between atoms: _273  and  _276
REMARK  110  A    between atoms: _279  and  _281
REMARK  111  A    between atoms: _281  and  _282
REMARK  112  A    between atoms: _281  and  _284
REMARK  113  A    between atoms: _284  and  _285
REMARK  114  A    between atoms: _287  and  _289
REMARK  115  A    between atoms: _289  and  _290
REMARK  116  A    between atoms: _289  and  _292
REMARK  117  A    between atoms: _295  and  _297
REMARK  118  A    between atoms: _297  and  _298
REMARK  119  A    between atoms: _300  and  _302
REMARK  120  A    between atoms: _302  and  _303
REMARK  121  A    between atoms: _306  and  _308
REMARK  122  A    between atoms: _308  and  _309
REMARK  123  A    between atoms: _308  and  _311
REMARK  124  A    between atoms: _311  and  _312
REMARK  125  A    between atoms: _315  and  _317
REMARK  126  A    between atoms: _317  and  _318
REMARK  127  A    between atoms: _317  and  _320
REMARK  128  A    between atoms: _323  and  _325
REMARK  129  A    between atoms: _325  and  _326
REMARK  130  A    between atoms: _325  and  _328
REMARK  131  A    between atoms: _328  and  _329
REMARK  132  A    between atoms: _332  and  _334
REMARK  133  A    between atoms: _334  and  _335
REMARK  134  A    between atoms: _338  and  _340
REMARK  135  A    between atoms: _340  and  _341
REMARK  136  A    between atoms: _340  and  _343
REMARK  137  A    between atoms: _343  and  _344
REMARK  138  A    between atoms: _344  and  _345
REMARK  139  A    between atoms: _345  and  _346
REMARK  140  A    between atoms: _355  and  _357
REMARK  141  A    between atoms: _357  and  _358
REMARK  142  A    between atoms: _357  and  _360
REMARK  143  A    between atoms: _360  and  _361
REMARK  144  A    between atoms: _361  and  _362
REMARK  145  A    between atoms: _365  and  _367
REMARK  146  A    between atoms: _367  and  _368
REMARK  147  A    between atoms: _367  and  _370
REMARK  148  A    between atoms: _370  and  _371
REMARK  149  A    between atoms: _371  and  _372
REMARK  150  A    between atoms: _375  and  _377
REMARK  151  A    between atoms: _377  and  _378
REMARK  152  A    between atoms: _377  and  _380
REMARK  153  A    between atoms: _380  and  _381
REMARK  154  A    between atoms: _384  and  _386
REMARK  155  A    between atoms: _386  and  _387
REMARK  156  A    between atoms: _386  and  _389
REMARK  157  A    between atoms: _389  and  _390
REMARK  158  A    between atoms: _390  and  _391
REMARK  159  A    between atoms: _391  and  _392
REMARK  160  A    between atoms: _401  and  _403
REMARK  161  A    between atoms: _403  and  _404
REMARK  162  A    between atoms: _403  and  _406
REMARK  163  A    between atoms: _406  and  _407
REMARK  164  A    between atoms: _410  and  _412
REMARK  165  A    between atoms: _412  and  _413
REMARK  166  A    between atoms: _412  and  _415
REMARK  167  A    between atoms: _415  and  _416
REMARK  168  A    between atoms: _419  and  _421
REMARK  169  A    between atoms: _421  and  _422
REMARK  170  A    between atoms: _426  and  _427
REMARK  171  A    between atoms: _432  and  _434
REMARK  172  A    between atoms: _434  and  _435
REMARK  173  A    between atoms: _434  and  _437
REMARK  174  A    between atoms: _437  and  _438
REMARK  175  A    between atoms: _443  and  _445
REMARK  176  A    between atoms: _445  and  _446
REMARK  177  A    between atoms: _445  and  _448
REMARK  178  A    between atoms: _448  and  _449
REMARK  179  A    between atoms: _456  and  _457
REMARK  180  A    between atoms: _462  and  _464
REMARK  181  A    between atoms: _464  and  _465
REMARK  182  A    between atoms: _464  and  _467
REMARK  183  A    between atoms: _467  and  _468
REMARK  184  A    between atoms: _471  and  _473
REMARK  185  A    between atoms: _473  and  _474
REMARK  186  A    between atoms: _473  and  _476
REMARK  187  A    between atoms: _476  and  _477
REMARK  188  A    between atoms: _480  and  _482
REMARK  189  A    between atoms: _482  and  _483
REMARK  190  A    between atoms: _482  and  _485
REMARK  191  A    between atoms: _485  and  _486
REMARK  192  A    between atoms: _486  and  _487
REMARK  193  A    between atoms: _489  and  _491
REMARK  194  A    between atoms: _491  and  _492
REMARK  195  A    between atoms: _491  and  _494
REMARK  196  A    between atoms: _494  and  _495
REMARK  197  A    between atoms: _495  and  _496
REMARK  198  A    between atoms: _501  and  _503
REMARK  199  A    between atoms: _503  and  _504
REMARK  200  A    between atoms: _503  and  _506
REMARK  201  A    between atoms: _506  and  _507
REMARK  202  A    between atoms: _507  and  _508
REMARK  203  A    between atoms: _511  and  _513
REMARK  204  A    between atoms: _513  and  _514
REMARK  205  A    between atoms: _513  and  _516
REMARK  206  A    between atoms: _516  and  _517
REMARK  207  A    between atoms: _520  and  _522
REMARK  208  A    between atoms: _522  and  _523
REMARK  209  A    between atoms: _522  and  _525
REMARK  210  A    between atoms: _525  and  _526
REMARK  211  A    between atoms: _529  and  _531
REMARK  212  A    between atoms: _531  and  _532
REMARK  213  A    between atoms: _531  and  _534
REMARK  214  A    between atoms: _534  and  _535
REMARK  215  A    between atoms: _543  and  _544
REMARK  216  A    between atoms: _543  and  _546
REMARK  217  A    between atoms: _546  and  _547
REMARK  218  A    between atoms: _547  and  _548
REMARK  219  A    between atoms: _551  and  _553
REMARK  220  A    between atoms: _553  and  _554
REMARK  221  A    between atoms: _553  and  _556
REMARK  222  A    between atoms: _556  and  _557
REMARK  223  A    between atoms: _562  and  _564
REMARK  224  A    between atoms: _564  and  _565
REMARK  225  A    between atoms: _564  and  _567
REMARK  226  A    between atoms: _567  and  _568
REMARK  227  A    between atoms: _568  and  _569
REMARK  228  A    between atoms: _569  and  _570
REMARK  229  A    between atoms: _579  and  _581
REMARK  230  A    between atoms: _581  and  _582
REMARK  231  A    between atoms: _581  and  _584
REMARK  232  A    between atoms: _584  and  _585
REMARK  233  A    between atoms: _590  and  _591
REMARK  234  A    between atoms: _590  and  _593
REMARK  235  A    between atoms: _593  and  _594
REMARK  236  A    between atoms: _597  and  _599
REMARK  237  A    between atoms: _599  and  _600
REMARK  238  A    between atoms: _599  and  _602
REMARK  239  A    between atoms: _602  and  _603
REMARK  240  A    between atoms: _603  and  _604
REMARK  241  A    between atoms: _604  and  _605
REMARK  242  A    between atoms: _614  and  _616
REMARK  243  A    between atoms: _616  and  _617
REMARK                            x       y       z     vdW  Elec       q    Type
REMARK                         _______ _______ _______ _____ _____    ______ ____
ROOT
ATOM      1  O   HOH     1      90.158  -5.273 119.735  0.00  0.00    +0.000 OA
ENDROOT
TORSDOF 0
REMARK  Name = ../refined-set-2016/3upk/3upk_pocket.pdb
REMARK  243 active torsions:
REMARK  status: ('A' for Active; 'I' for Inactive)
REMARK    1  A    between atoms: _1  and  _3
REMARK    2  A    between atoms: _3  and  _4
REMARK    3  A    between atoms: _3  and  _6
REMARK    4  A    between atoms: _6  and  _7
REMARK    5  A    between atoms: _7  and  _8
REMARK    6  A    between atoms: _8  and  _9
REMARK    7  A    between atoms: _9  and  _10
REMARK    8  A    between atoms: _16  and  _17
REMARK    9  A    between atoms: _16  and  _19
REMARK   10  A    between atoms: _19  and  _20
REMARK   11  A    between atoms: _25  and  _27
REMARK   12  A    between atoms: _27  and  _28
REMARK   13  A    between atoms: _31  and  _33
REMARK   14  A    between atoms: _33  and  _34
REMARK   15  A    between atoms: _33  and  _36
REMARK   16  A    between atoms: _36  and  _37
REMARK   17  A    between atoms: _41  and  _42
REMARK   18  A    between atoms: _47  and  _49
REMARK   19  A    between atoms: _49  and  _50
REMARK   20  A    between atoms: _49  and  _52
REMARK   21  A    between atoms: _52  and  _53
REMARK   22  A    between atoms: _59  and  _61
REMARK   23  A    between atoms: _61  and  _62
REMARK   24  A    between atoms: _61  and  _64
REMARK   25  A    between atoms: _64  and  _65
REMARK   26  A    between atoms: _68  and  _70
REMARK   27  A    between atoms: _70  and  _71
REMARK   28  A    between atoms: _70  and  _73
REMARK   29  A    between atoms: _73  and  _74
REMARK   30  A    between atoms: _74  and  _75
REMARK   31  A    between atoms: _77  and  _79
REMARK   32  A    between atoms: _79  and  _80
REMARK   33  A    between atoms: _79  and  _82
REMARK   34  A    between atoms: _82  and  _83
REMARK   35  A    between atoms: _83  and  _84
REMARK   36  A    between atoms: _84  and  _85
REMARK   37  A    between atoms: _94  and  _96
REMARK   38  A    between atoms: _96  and  _97
REMARK   39  A    between atoms: _100  and  _102
REMARK   40  A    between atoms: _102  and  _103
REMARK   41  A    between atoms: _102  and  _105
REMARK   42  A    between atoms: _105  and  _106
REMARK   43  A    between atoms: _108  and  _110
REMARK   44  A    between atoms: _110  and  _111
REMARK   45  A    between atoms: _110  and  _113
REMARK   46  A    between atoms: _113  and  _114
REMARK   47  A    between atoms: _117  and  _119
REMARK   48  A    between atoms: _119  and  _120
REMARK   49  A    between atoms: _119  and  _122
REMARK   50  A    between atoms: _122  and  _123
REMARK   51  A    between atoms: _133  and  _135
REMARK   52  A    between atoms: _135  and  _136
REMARK   53  A    between atoms: _135  and  _138
REMARK   54  A    between atoms: _138  and  _139
REMARK   55  A    between atoms: _142  and  _144
REMARK   56  A    between atoms: _144  and  _145
REMARK   57  A    between atoms: _147  and  _149
REMARK   58  A    between atoms: _149  and  _150
REMARK   59  A    between atoms: _153  and  _155
REMARK   60  A    between atoms: _155  and  _156
REMARK   61  A    between atoms: _155  and  _158
REMARK   62  A    between atoms: _158  and  _159
REMARK   63  A    between atoms: _159  and  _160
REMARK   64  A    between atoms: _160  and  _161
REMARK   65  A    between atoms: _171  and  _172
REMARK   66  A    between atoms: _177  and  _179
REMARK   67  A    between atoms: _179  and  _180
REMARK   68  A    between atoms: _179  and  _182
REMARK   69  A    between atoms: _185  and  _187
REMARK   70  A    between atoms: _187  and  _188
REMARK   71  A    between atoms: _187  and  _190
REMARK   72  A    between atoms: _190  and  _191
REMARK   73  A    between atoms: _194  and  _196
REMARK   74  A    between atoms: _196  and  _197
REMARK   75  A    between atoms: _196  and  _199
REMARK   76  A    between atoms: _199  and  _200
REMARK   77  A    between atoms: _203  and  _205
REMARK   78  A    between atoms: _205  and  _206
REMARK   79  A    between atoms: _205  and  _208
REMARK   80  A    between atoms: _208  and  _209
REMARK   81  A    between atoms: _214  and  _216
REMARK   82  A    between atoms: _216  and  _217
REMARK   83  A    between atoms: _216  and  _219
REMARK   84  A    between atoms: _219  and  _220
REMARK   85  A    between atoms: _223  and  _225
REMARK   86  A    between atoms: _225  and  _226
REMARK   87  A    between atoms: _225  and  _228
REMARK   88  A    between atoms: _228  and  _229
REMARK   89  A    between atoms: _235  and  _237
REMARK   90  A    between atoms: _237  and  _238
REMARK   91  A    between atoms: _240  and  _242
REMARK   92  A    between atoms: _242  and  _243
REMARK   93  A    between atoms: _242  and  _245
REMARK   94  A    between atoms: _245  and  _246
REMARK   95  A    between atoms: _246  and  _247
REMARK   96  A    between atoms: _249  and  _251
REMARK   97  A    between atoms: _251  and  _252
REMARK   98  A    between atoms: _251  and  _254
REMARK   99  A    between atoms: _254  and  _255
REMARK  100  A    between atoms: _258  and  _260
REMARK  101  A    between atoms: _260  and  _261
REMARK  102  A    between atoms: _260  and  _263
REMARK  103  A    between atoms: _263  and  _264
REMARK  104  A    between atoms: _264  and  _265
REMARK  105  A    between atoms: _265  and  _266
REMARK  106  A    between atoms: _266  and  _267
REMARK  107  A    between atoms: _271  and  _273
REMARK  108  A    between atoms: _273  and  _274
REMARK  109  A    between atoms: _273  and  _276
REMARK  110  A    between atoms: _279  and  _281
REMARK  111  A    between atoms: _281  and  _282
REMARK  112  A    between atoms: _281  and  _284
REMARK  113  A    between atoms: _284  and  _285
REMARK  114  A    between atoms: _287  and  _289
REMARK  115  A    between atoms: _289  and  _290
REMARK  116  A    between atoms: _289  and  _292
REMARK  117  A    between atoms: _295  and  _297
REMARK  118  A    between atoms: _297  and  _298
REMARK  119  A    between atoms: _300  and  _302
REMARK  120  A    between atoms: _302  and  _303
REMARK  121  A    between atoms: _306  and  _308
REMARK  122  A    between atoms: _308  and  _309
REMARK  123  A    between atoms: _308  and  _311
REMARK  124  A    between atoms: _311  and  _312
REMARK  125  A    between atoms: _315  and  _317
REMARK  126  A    between atoms: _317  and  _318
REMARK  127  A    between atoms: _317  and  _320
REMARK  128  A    between atoms: _323  and  _325
REMARK  129  A    between atoms: _325  and  _326
REMARK  130  A    between atoms: _325  and  _328
REMARK  131  A    between atoms: _328  and  _329
REMARK  132  A    between atoms: _332  and  _334
REMARK  133  A    between atoms: _334  and  _335
REMARK  134  A    between atoms: _338  and  _340
REMARK  135  A    between atoms: _340  and  _341
REMARK  136  A    between atoms: _340  and  _343
REMARK  137  A    between atoms: _343  and  _344
REMARK  138  A    between atoms: _344  and  _345
REMARK  139  A    between atoms: _345  and  _346
REMARK  140  A    between atoms: _355  and  _357
REMARK  141  A    between atoms: _357  and  _358
REMARK  142  A    between atoms: _357  and  _360
REMARK  143  A    between atoms: _360  and  _361
REMARK  144  A    between atoms: _361  and  _362
REMARK  145  A    between atoms: _365  and  _367
REMARK  146  A    between atoms: _367  and  _368
REMARK  147  A    between atoms: _367  and  _370
REMARK  148  A    between atoms: _370  and  _371
REMARK  149  A    between atoms: _371  and  _372
REMARK  150  A    between atoms: _375  and  _377
REMARK  151  A    between atoms: _377  and  _378
REMARK  152  A    between atoms: _377  and  _380
REMARK  153  A    between atoms: _380  and  _381
REMARK  154  A    between atoms: _384  and  _386
REMARK  155  A    between atoms: _386  and  _387
REMARK  156  A    between atoms: _386  and  _389
REMARK  157  A    between atoms: _389  and  _390
REMARK  158  A    between atoms: _390  and  _391
REMARK  159  A    between atoms: _391  and  _392
REMARK  160  A    between atoms: _401  and  _403
REMARK  161  A    between atoms: _403  and  _404
REMARK  162  A    between atoms: _403  and  _406
REMARK  163  A    between atoms: _406  and  _407
REMARK  164  A    between atoms: _410  and  _412
REMARK  165  A    between atoms: _412  and  _413
REMARK  166  A    between atoms: _412  and  _415
REMARK  167  A    between atoms: _415  and  _416
REMARK  168  A    between atoms: _419  and  _421
REMARK  169  A    between atoms: _421  and  _422
REMARK  170  A    between atoms: _426  and  _427
REMARK  171  A    between atoms: _432  and  _434
REMARK  172  A    between atoms: _434  and  _435
REMARK  173  A    between atoms: _434  and  _437
REMARK  174  A    between atoms: _437  and  _438
REMARK  175  A    between atoms: _443  and  _445
REMARK  176  A    between atoms: _445  and  _446
REMARK  177  A    between atoms: _445  and  _448
REMARK  178  A    between atoms: _448  and  _449
REMARK  179  A    between atoms: _456  and  _457
REMARK  180  A    between atoms: _462  and  _464
REMARK  181  A    between atoms: _464  and  _465
REMARK  182  A    between atoms: _464  and  _467
REMARK  183  A    between atoms: _467  and  _468
REMARK  184  A    between atoms: _471  and  _473
REMARK  185  A    between atoms: _473  and  _474
REMARK  186  A    between atoms: _473  and  _476
REMARK  187  A    between atoms: _476  and  _477
REMARK  188  A    between atoms: _480  and  _482
REMARK  189  A    between atoms: _482  and  _483
REMARK  190  A    between atoms: _482  and  _485
REMARK  191  A    between atoms: _485  and  _486
REMARK  192  A    between atoms: _486  and  _487
REMARK  193  A    between atoms: _489  and  _491
REMARK  194  A    between atoms: _491  and  _492
REMARK  195  A    between atoms: _491  and  _494
REMARK  196  A    between atoms: _494  and  _495
REMARK  197  A    between atoms: _495  and  _496
REMARK  198  A    between atoms: _501  and  _503
REMARK  199  A    between atoms: _503  and  _504
REMARK  200  A    between atoms: _503  and  _506
REMARK  201  A    between atoms: _506  and  _507
REMARK  202  A    between atoms: _507  and  _508
REMARK  203  A    between atoms: _511  and  _513
REMARK  204  A    between atoms: _513  and  _514
REMARK  205  A    between atoms: _513  and  _516
REMARK  206  A    between atoms: _516  and  _517
REMARK  207  A    between atoms: _520  and  _522
REMARK  208  A    between atoms: _522  and  _523
REMARK  209  A    between atoms: _522  and  _525
REMARK  210  A    between atoms: _525  and  _526
REMARK  211  A    between atoms: _529  and  _531
REMARK  212  A    between atoms: _531  and  _532
REMARK  213  A    between atoms: _531  and  _534
REMARK  214  A    between atoms: _534  and  _535
REMARK  215  A    between atoms: _543  and  _544
REMARK  216  A    between atoms: _543  and  _546
REMARK  217  A    between atoms: _546  and  _547
REMARK  218  A    between atoms: _547  and  _548
REMARK  219  A    between atoms: _551  and  _553
REMARK  220  A    between atoms: _553  and  _554
REMARK  221  A    between atoms: _553  and  _556
REMARK  222  A    between atoms: _556  and  _557
REMARK  223  A    between atoms: _562  and  _564
REMARK  224  A    between atoms: _564  and  _565
REMARK  225  A    between atoms: _564  and  _567
REMARK  226  A    between atoms: _567  and  _568
REMARK  227  A    between atoms: _568  and  _569
REMARK  228  A    between atoms: _569  and  _570
REMARK  229  A    between atoms: _579  and  _581
REMARK  230  A    between atoms: _581  and  _582
REMARK  231  A    between atoms: _581  and  _584
REMARK  232  A    between atoms: _584  and  _585
REMARK  233  A    between atoms: _590  and  _591
REMARK  234  A    between atoms: _590  and  _593
REMARK  235  A    between atoms: _593  and  _594
REMARK  236  A    between atoms: _597  and  _599
REMARK  237  A    between atoms: _599  and  _600
REMARK  238  A    between atoms: _599  and  _602
REMARK  239  A    between atoms: _602  and  _603
REMARK  240  A    between atoms: _603  and  _604
REMARK  241  A    between atoms: _604  and  _605
REMARK  242  A    between atoms: _614  and  _616
REMARK  243  A    between atoms: _616  and  _617
REMARK                            x       y       z     vdW  Elec       q    Type
REMARK                         _______ _______ _______ _____ _____    ______ ____
ROOT
ATOM      1  O   HOH     1      89.221   7.134 132.853  0.00  0.00    +0.000 OA
ENDROOT
TORSDOF 0
REMARK  Name = ../refined-set-2016/3upk/3upk_pocket.pdb
REMARK  243 active torsions:
REMARK  status: ('A' for Active; 'I' for Inactive)
REMARK    1  A    between atoms: _1  and  _3
REMARK    2  A    between atoms: _3  and  _4
REMARK    3  A    between atoms: _3  and  _6
REMARK    4  A    between atoms: _6  and  _7
REMARK    5  A    between atoms: _7  and  _8
REMARK    6  A    between atoms: _8  and  _9
REMARK    7  A    between atoms: _9  and  _10
REMARK    8  A    between atoms: _16  and  _17
REMARK    9  A    between atoms: _16  and  _19
REMARK   10  A    between atoms: _19  and  _20
REMARK   11  A    between atoms: _25  and  _27
REMARK   12  A    between atoms: _27  and  _28
REMARK   13  A    between atoms: _31  and  _33
REMARK   14  A    between atoms: _33  and  _34
REMARK   15  A    between atoms: _33  and  _36
REMARK   16  A    between atoms: _36  and  _37
REMARK   17  A    between atoms: _41  and  _42
REMARK   18  A    between atoms: _47  and  _49
REMARK   19  A    between atoms: _49  and  _50
REMARK   20  A    between atoms: _49  and  _52
REMARK   21  A    between atoms: _52  and  _53
REMARK   22  A    between atoms: _59  and  _61
REMARK   23  A    between atoms: _61  and  _62
REMARK   24  A    between atoms: _61  and  _64
REMARK   25  A    between atoms: _64  and  _65
REMARK   26  A    between atoms: _68  and  _70
REMARK   27  A    between atoms: _70  and  _71
REMARK   28  A    between atoms: _70  and  _73
REMARK   29  A    between atoms: _73  and  _74
REMARK   30  A    between atoms: _74  and  _75
REMARK   31  A    between atoms: _77  and  _79
REMARK   32  A    between atoms: _79  and  _80
REMARK   33  A    between atoms: _79  and  _82
REMARK   34  A    between atoms: _82  and  _83
REMARK   35  A    between atoms: _83  and  _84
REMARK   36  A    between atoms: _84  and  _85
REMARK   37  A    between atoms: _94  and  _96
REMARK   38  A    between atoms: _96  and  _97
REMARK   39  A    between atoms: _100  and  _102
REMARK   40  A    between atoms: _102  and  _103
REMARK   41  A    between atoms: _102  and  _105
REMARK   42  A    between atoms: _105  and  _106
REMARK   43  A    between atoms: _108  and  _110
REMARK   44  A    between atoms: _110  and  _111
REMARK   45  A    between atoms: _110  and  _113
REMARK   46  A    between atoms: _113  and  _114
REMARK   47  A    between atoms: _117  and  _119
REMARK   48  A    between atoms: _119  and  _120
REMARK   49  A    between atoms: _119  and  _122
REMARK   50  A    between atoms: _122  and  _123
REMARK   51  A    between atoms: _133  and  _135
REMARK   52  A    between atoms: _135  and  _136
REMARK   53  A    between atoms: _135  and  _138
REMARK   54  A    between atoms: _138  and  _139
REMARK   55  A    between atoms: _142  and  _144
REMARK   56  A    between atoms: _144  and  _145
REMARK   57  A    between atoms: _147  and  _149
REMARK   58  A    between atoms: _149  and  _150
REMARK   59  A    between atoms: _153  and  _155
REMARK   60  A    between atoms: _155  and  _156
REMARK   61  A    between atoms: _155  and  _158
REMARK   62  A    between atoms: _158  and  _159
REMARK   63  A    between atoms: _159  and  _160
REMARK   64  A    between atoms: _160  and  _161
REMARK   65  A    between atoms: _171  and  _172
REMARK   66  A    between atoms: _177  and  _179
REMARK   67  A    between atoms: _179  and  _180
REMARK   68  A    between atoms: _179  and  _182
REMARK   69  A    between atoms: _185  and  _187
REMARK   70  A    between atoms: _187  and  _188
REMARK   71  A    between atoms: _187  and  _190
REMARK   72  A    between atoms: _190  and  _191
REMARK   73  A    between atoms: _194  and  _196
REMARK   74  A    between atoms: _196  and  _197
REMARK   75  A    between atoms: _196  and  _199
REMARK   76  A    between atoms: _199  and  _200
REMARK   77  A    between atoms: _203  and  _205
REMARK   78  A    between atoms: _205  and  _206
REMARK   79  A    between atoms: _205  and  _208
REMARK   80  A    between atoms: _208  and  _209
REMARK   81  A    between atoms: _214  and  _216
REMARK   82  A    between atoms: _216  and  _217
REMARK   83  A    between atoms: _216  and  _219
REMARK   84  A    between atoms: _219  and  _220
REMARK   85  A    between atoms: _223  and  _225
REMARK   86  A    between atoms: _225  and  _226
REMARK   87  A    between atoms: _225  and  _228
REMARK   88  A    between atoms: _228  and  _229
REMARK   89  A    between atoms: _235  and  _237
REMARK   90  A    between atoms: _237  and  _238
REMARK   91  A    between atoms: _240  and  _242
REMARK   92  A    between atoms: _242  and  _243
REMARK   93  A    between atoms: _242  and  _245
REMARK   94  A    between atoms: _245  and  _246
REMARK   95  A    between atoms: _246  and  _247
REMARK   96  A    between atoms: _249  and  _251
REMARK   97  A    between atoms: _251  and  _252
REMARK   98  A    between atoms: _251  and  _254
REMARK   99  A    between atoms: _254  and  _255
REMARK  100  A    between atoms: _258  and  _260
REMARK  101  A    between atoms: _260  and  _261
REMARK  102  A    between atoms: _260  and  _263
REMARK  103  A    between atoms: _263  and  _264
REMARK  104  A    between atoms: _264  and  _265
REMARK  105  A    between atoms: _265  and  _266
REMARK  106  A    between atoms: _266  and  _267
REMARK  107  A    between atoms: _271  and  _273
REMARK  108  A    between atoms: _273  and  _274
REMARK  109  A    between atoms: _273  and  _276
REMARK  110  A    between atoms: _279  and  _281
REMARK  111  A    between atoms: _281  and  _282
REMARK  112  A    between atoms: _281  and  _284
REMARK  113  A    between atoms: _284  and  _285
REMARK  114  A    between atoms: _287  and  _289
REMARK  115  A    between atoms: _289  and  _290
REMARK  116  A    between atoms: _289  and  _292
REMARK  117  A    between atoms: _295  and  _297
REMARK  118  A    between atoms: _297  and  _298
REMARK  119  A    between atoms: _300  and  _302
REMARK  120  A    between atoms: _302  and  _303
REMARK  121  A    between atoms: _306  and  _308
REMARK  122  A    between atoms: _308  and  _309
REMARK  123  A    between atoms: _308  and  _311
REMARK  124  A    between atoms: _311  and  _312
REMARK  125  A    between atoms: _315  and  _317
REMARK  126  A    between atoms: _317  and  _318
REMARK  127  A    between atoms: _317  and  _320
REMARK  128  A    between atoms: _323  and  _325
REMARK  129  A    between atoms: _325  and  _326
REMARK  130  A    between atoms: _325  and  _328
REMARK  131  A    between atoms: _328  and  _329
REMARK  132  A    between atoms: _332  and  _334
REMARK  133  A    between atoms: _334  and  _335
REMARK  134  A    between atoms: _338  and  _340
REMARK  135  A    between atoms: _340  and  _341
REMARK  136  A    between atoms: _340  and  _343
REMARK  137  A    between atoms: _343  and  _344
REMARK  138  A    between atoms: _344  and  _345
REMARK  139  A    between atoms: _345  and  _346
REMARK  140  A    between atoms: _355  and  _357
REMARK  141  A    between atoms: _357  and  _358
REMARK  142  A    between atoms: _357  and  _360
REMARK  143  A    between atoms: _360  and  _361
REMARK  144  A    between atoms: _361  and  _362
REMARK  145  A    between atoms: _365  and  _367
REMARK  146  A    between atoms: _367  and  _368
REMARK  147  A    between atoms: _367  and  _370
REMARK  148  A    between atoms: _370  and  _371
REMARK  149  A    between atoms: _371  and  _372
REMARK  150  A    between atoms: _375  and  _377
REMARK  151  A    between atoms: _377  and  _378
REMARK  152  A    between atoms: _377  and  _380
REMARK  153  A    between atoms: _380  and  _381
REMARK  154  A    between atoms: _384  and  _386
REMARK  155  A    between atoms: _386  and  _387
REMARK  156  A    between atoms: _386  and  _389
REMARK  157  A    between atoms: _389  and  _390
REMARK  158  A    between atoms: _390  and  _391
REMARK  159  A    between atoms: _391  and  _392
REMARK  160  A    between atoms: _401  and  _403
REMARK  161  A    between atoms: _403  and  _404
REMARK  162  A    between atoms: _403  and  _406
REMARK  163  A    between atoms: _406  and  _407
REMARK  164  A    between atoms: _410  and  _412
REMARK  165  A    between atoms: _412  and  _413
REMARK  166  A    between atoms: _412  and  _415
REMARK  167  A    between atoms: _415  and  _416
REMARK  168  A    between atoms: _419  and  _421
REMARK  169  A    between atoms: _421  and  _422
REMARK  170  A    between atoms: _426  and  _427
REMARK  171  A    between atoms: _432  and  _434
REMARK  172  A    between atoms: _434  and  _435
REMARK  173  A    between atoms: _434  and  _437
REMARK  174  A    between atoms: _437  and  _438
REMARK  175  A    between atoms: _443  and  _445
REMARK  176  A    between atoms: _445  and  _446
REMARK  177  A    between atoms: _445  and  _448
REMARK  178  A    between atoms: _448  and  _449
REMARK  179  A    between atoms: _456  and  _457
REMARK  180  A    between atoms: _462  and  _464
REMARK  181  A    between atoms: _464  and  _465
REMARK  182  A    between atoms: _464  and  _467
REMARK  183  A    between atoms: _467  and  _468
REMARK  184  A    between atoms: _471  and  _473
REMARK  185  A    between atoms: _473  and  _474
REMARK  186  A    between atoms: _473  and  _476
REMARK  187  A    between atoms: _476  and  _477
REMARK  188  A    between atoms: _480  and  _482
REMARK  189  A    between atoms: _482  and  _483
REMARK  190  A    between atoms: _482  and  _485
REMARK  191  A    between atoms: _485  and  _486
REMARK  192  A    between atoms: _486  and  _487
REMARK  193  A    between atoms: _489  and  _491
REMARK  194  A    between atoms: _491  and  _492
REMARK  195  A    between atoms: _491  and  _494
REMARK  196  A    between atoms: _494  and  _495
REMARK  197  A    between atoms: _495  and  _496
REMARK  198  A    between atoms: _501  and  _503
REMARK  199  A    between atoms: _503  and  _504
REMARK  200  A    between atoms: _503  and  _506
REMARK  201  A    between atoms: _506  and  _507
REMARK  202  A    between atoms: _507  and  _508
REMARK  203  A    between atoms: _511  and  _513
REMARK  204  A    between atoms: _513  and  _514
REMARK  205  A    between atoms: _513  and  _516
REMARK  206  A    between atoms: _516  and  _517
REMARK  207  A    between atoms: _520  and  _522
REMARK  208  A    between atoms: _522  and  _523
REMARK  209  A    between atoms: _522  and  _525
REMARK  210  A    between atoms: _525  and  _526
REMARK  211  A    between atoms: _529  and  _531
REMARK  212  A    between atoms: _531  and  _532
REMARK  213  A    between atoms: _531  and  _534
REMARK  214  A    between atoms: _534  and  _535
REMARK  215  A    between atoms: _543  and  _544
REMARK  216  A    between atoms: _543  and  _546
REMARK  217  A    between atoms: _546  and  _547
REMARK  218  A    between atoms: _547  and  _548
REMARK  219  A    between atoms: _551  and  _553
REMARK  220  A    between atoms: _553  and  _554
REMARK  221  A    between atoms: _553  and  _556
REMARK  222  A    between atoms: _556  and  _557
REMARK  223  A    between atoms: _562  and  _564
REMARK  224  A    between atoms: _564  and  _565
REMARK  225  A    between atoms: _564  and  _567
REMARK  226  A    between atoms: _567  and  _568
REMARK  227  A    between atoms: _568  and  _569
REMARK  228  A    between atoms: _569  and  _570
REMARK  229  A    between atoms: _579  and  _581
REMARK  230  A    between atoms: _581  and  _582
REMARK  231  A    between atoms: _581  and  _584
REMARK  232  A    between atoms: _584  and  _585
REMARK  233  A    between atoms: _590  and  _591
REMARK  234  A    between atoms: _590  and  _593
REMARK  235  A    between atoms: _593  and  _594
REMARK  236  A    between atoms: _597  and  _599
REMARK  237  A    between atoms: _599  and  _600
REMARK  238  A    between atoms: _599  and  _602
REMARK  239  A    between atoms: _602  and  _603
REMARK  240  A    between atoms: _603  and  _604
REMARK  241  A    between atoms: _604  and  _605
REMARK  242  A    between atoms: _614  and  _616
REMARK  243  A    between atoms: _616  and  _617
REMARK                            x       y       z     vdW  Elec       q    Type
REMARK                         _______ _______ _______ _____ _____    ______ ____
ROOT
ATOM      1  O   HOH     1      87.713  -5.593 131.119  0.00  0.00    +0.000 OA
ENDROOT
TORSDOF 0
REMARK  Name = ../refined-set-2016/3upk/3upk_pocket.pdb
REMARK  243 active torsions:
REMARK  status: ('A' for Active; 'I' for Inactive)
REMARK    1  A    between atoms: _1  and  _3
REMARK    2  A    between atoms: _3  and  _4
REMARK    3  A    between atoms: _3  and  _6
REMARK    4  A    between atoms: _6  and  _7
REMARK    5  A    between atoms: _7  and  _8
REMARK    6  A    between atoms: _8  and  _9
REMARK    7  A    between atoms: _9  and  _10
REMARK    8  A    between atoms: _16  and  _17
REMARK    9  A    between atoms: _16  and  _19
REMARK   10  A    between atoms: _19  and  _20
REMARK   11  A    between atoms: _25  and  _27
REMARK   12  A    between atoms: _27  and  _28
REMARK   13  A    between atoms: _31  and  _33
REMARK   14  A    between atoms: _33  and  _34
REMARK   15  A    between atoms: _33  and  _36
REMARK   16  A    between atoms: _36  and  _37
REMARK   17  A    between atoms: _41  and  _42
REMARK   18  A    between atoms: _47  and  _49
REMARK   19  A    between atoms: _49  and  _50
REMARK   20  A    between atoms: _49  and  _52
REMARK   21  A    between atoms: _52  and  _53
REMARK   22  A    between atoms: _59  and  _61
REMARK   23  A    between atoms: _61  and  _62
REMARK   24  A    between atoms: _61  and  _64
REMARK   25  A    between atoms: _64  and  _65
REMARK   26  A    between atoms: _68  and  _70
REMARK   27  A    between atoms: _70  and  _71
REMARK   28  A    between atoms: _70  and  _73
REMARK   29  A    between atoms: _73  and  _74
REMARK   30  A    between atoms: _74  and  _75
REMARK   31  A    between atoms: _77  and  _79
REMARK   32  A    between atoms: _79  and  _80
REMARK   33  A    between atoms: _79  and  _82
REMARK   34  A    between atoms: _82  and  _83
REMARK   35  A    between atoms: _83  and  _84
REMARK   36  A    between atoms: _84  and  _85
REMARK   37  A    between atoms: _94  and  _96
REMARK   38  A    between atoms: _96  and  _97
REMARK   39  A    between atoms: _100  and  _102
REMARK   40  A    between atoms: _102  and  _103
REMARK   41  A    between atoms: _102  and  _105
REMARK   42  A    between atoms: _105  and  _106
REMARK   43  A    between atoms: _108  and  _110
REMARK   44  A    between atoms: _110  and  _111
REMARK   45  A    between atoms: _110  and  _113
REMARK   46  A    between atoms: _113  and  _114
REMARK   47  A    between atoms: _117  and  _119
REMARK   48  A    between atoms: _119  and  _120
REMARK   49  A    between atoms: _119  and  _122
REMARK   50  A    between atoms: _122  and  _123
REMARK   51  A    between atoms: _133  and  _135
REMARK   52  A    between atoms: _135  and  _136
REMARK   53  A    between atoms: _135  and  _138
REMARK   54  A    between atoms: _138  and  _139
REMARK   55  A    between atoms: _142  and  _144
REMARK   56  A    between atoms: _144  and  _145
REMARK   57  A    between atoms: _147  and  _149
REMARK   58  A    between atoms: _149  and  _150
REMARK   59  A    between atoms: _153  and  _155
REMARK   60  A    between atoms: _155  and  _156
REMARK   61  A    between atoms: _155  and  _158
REMARK   62  A    between atoms: _158  and  _159
REMARK   63  A    between atoms: _159  and  _160
REMARK   64  A    between atoms: _160  and  _161
REMARK   65  A    between atoms: _171  and  _172
REMARK   66  A    between atoms: _177  and  _179
REMARK   67  A    between atoms: _179  and  _180
REMARK   68  A    between atoms: _179  and  _182
REMARK   69  A    between atoms: _185  and  _187
REMARK   70  A    between atoms: _187  and  _188
REMARK   71  A    between atoms: _187  and  _190
REMARK   72  A    between atoms: _190  and  _191
REMARK   73  A    between atoms: _194  and  _196
REMARK   74  A    between atoms: _196  and  _197
REMARK   75  A    between atoms: _196  and  _199
REMARK   76  A    between atoms: _199  and  _200
REMARK   77  A    between atoms: _203  and  _205
REMARK   78  A    between atoms: _205  and  _206
REMARK   79  A    between atoms: _205  and  _208
REMARK   80  A    between atoms: _208  and  _209
REMARK   81  A    between atoms: _214  and  _216
REMARK   82  A    between atoms: _216  and  _217
REMARK   83  A    between atoms: _216  and  _219
REMARK   84  A    between atoms: _219  and  _220
REMARK   85  A    between atoms: _223  and  _225
REMARK   86  A    between atoms: _225  and  _226
REMARK   87  A    between atoms: _225  and  _228
REMARK   88  A    between atoms: _228  and  _229
REMARK   89  A    between atoms: _235  and  _237
REMARK   90  A    between atoms: _237  and  _238
REMARK   91  A    between atoms: _240  and  _242
REMARK   92  A    between atoms: _242  and  _243
REMARK   93  A    between atoms: _242  and  _245
REMARK   94  A    between atoms: _245  and  _246
REMARK   95  A    between atoms: _246  and  _247
REMARK   96  A    between atoms: _249  and  _251
REMARK   97  A    between atoms: _251  and  _252
REMARK   98  A    between atoms: _251  and  _254
REMARK   99  A    between atoms: _254  and  _255
REMARK  100  A    between atoms: _258  and  _260
REMARK  101  A    between atoms: _260  and  _261
REMARK  102  A    between atoms: _260  and  _263
REMARK  103  A    between atoms: _263  and  _264
REMARK  104  A    between atoms: _264  and  _265
REMARK  105  A    between atoms: _265  and  _266
REMARK  106  A    between atoms: _266  and  _267
REMARK  107  A    between atoms: _271  and  _273
REMARK  108  A    between atoms: _273  and  _274
REMARK  109  A    between atoms: _273  and  _276
REMARK  110  A    between atoms: _279  and  _281
REMARK  111  A    between atoms: _281  and  _282
REMARK  112  A    between atoms: _281  and  _284
REMARK  113  A    between atoms: _284  and  _285
REMARK  114  A    between atoms: _287  and  _289
REMARK  115  A    between atoms: _289  and  _290
REMARK  116  A    between atoms: _289  and  _292
REMARK  117  A    between atoms: _295  and  _297
REMARK  118  A    between atoms: _297  and  _298
REMARK  119  A    between atoms: _300  and  _302
REMARK  120  A    between atoms: _302  and  _303
REMARK  121  A    between atoms: _306  and  _308
REMARK  122  A    between atoms: _308  and  _309
REMARK  123  A    between atoms: _308  and  _311
REMARK  124  A    between atoms: _311  and  _312
REMARK  125  A    between atoms: _315  and  _317
REMARK  126  A    between atoms: _317  and  _318
REMARK  127  A    between atoms: _317  and  _320
REMARK  128  A    between atoms: _323  and  _325
REMARK  129  A    between atoms: _325  and  _326
REMARK  130  A    between atoms: _325  and  _328
REMARK  131  A    between atoms: _328  and  _329
REMARK  132  A    between atoms: _332  and  _334
REMARK  133  A    between atoms: _334  and  _335
REMARK  134  A    between atoms: _338  and  _340
REMARK  135  A    between atoms: _340  and  _341
REMARK  136  A    between atoms: _340  and  _343
REMARK  137  A    between atoms: _343  and  _344
REMARK  138  A    between atoms: _344  and  _345
REMARK  139  A    between atoms: _345  and  _346
REMARK  140  A    between atoms: _355  and  _357
REMARK  141  A    between atoms: _357  and  _358
REMARK  142  A    between atoms: _357  and  _360
REMARK  143  A    between atoms: _360  and  _361
REMARK  144  A    between atoms: _361  and  _362
REMARK  145  A    between atoms: _365  and  _367
REMARK  146  A    between atoms: _367  and  _368
REMARK  147  A    between atoms: _367  and  _370
REMARK  148  A    between atoms: _370  and  _371
REMARK  149  A    between atoms: _371  and  _372
REMARK  150  A    between atoms: _375  and  _377
REMARK  151  A    between atoms: _377  and  _378
REMARK  152  A    between atoms: _377  and  _380
REMARK  153  A    between atoms: _380  and  _381
REMARK  154  A    between atoms: _384  and  _386
REMARK  155  A    between atoms: _386  and  _387
REMARK  156  A    between atoms: _386  and  _389
REMARK  157  A    between atoms: _389  and  _390
REMARK  158  A    between atoms: _390  and  _391
REMARK  159  A    between atoms: _391  and  _392
REMARK  160  A    between atoms: _401  and  _403
REMARK  161  A    between atoms: _403  and  _404
REMARK  162  A    between atoms: _403  and  _406
REMARK  163  A    between atoms: _406  and  _407
REMARK  164  A    between atoms: _410  and  _412
REMARK  165  A    between atoms: _412  and  _413
REMARK  166  A    between atoms: _412  and  _415
REMARK  167  A    between atoms: _415  and  _416
REMARK  168  A    between atoms: _419  and  _421
REMARK  169  A    between atoms: _421  and  _422
REMARK  170  A    between atoms: _426  and  _427
REMARK  171  A    between atoms: _432  and  _434
REMARK  172  A    between atoms: _434  and  _435
REMARK  173  A    between atoms: _434  and  _437
REMARK  174  A    between atoms: _437  and  _438
REMARK  175  A    between atoms: _443  and  _445
REMARK  176  A    between atoms: _445  and  _446
REMARK  177  A    between atoms: _445  and  _448
REMARK  178  A    between atoms: _448  and  _449
REMARK  179  A    between atoms: _456  and  _457
REMARK  180  A    between atoms: _462  and  _464
REMARK  181  A    between atoms: _464  and  _465
REMARK  182  A    between atoms: _464  and  _467
REMARK  183  A    between atoms: _467  and  _468
REMARK  184  A    between atoms: _471  and  _473
REMARK  185  A    between atoms: _473  and  _474
REMARK  186  A    between atoms: _473  and  _476
REMARK  187  A    between atoms: _476  and  _477
REMARK  188  A    between atoms: _480  and  _482
REMARK  189  A    between atoms: _482  and  _483
REMARK  190  A    between atoms: _482  and  _485
REMARK  191  A    between atoms: _485  and  _486
REMARK  192  A    between atoms: _486  and  _487
REMARK  193  A    between atoms: _489  and  _491
REMARK  194  A    between atoms: _491  and  _492
REMARK  195  A    between atoms: _491  and  _494
REMARK  196  A    between atoms: _494  and  _495
REMARK  197  A    between atoms: _495  and  _496
REMARK  198  A    between atoms: _501  and  _503
REMARK  199  A    between atoms: _503  and  _504
REMARK  200  A    between atoms: _503  and  _506
REMARK  201  A    between atoms: _506  and  _507
REMARK  202  A    between atoms: _507  and  _508
REMARK  203  A    between atoms: _511  and  _513
REMARK  204  A    between atoms: _513  and  _514
REMARK  205  A    between atoms: _513  and  _516
REMARK  206  A    between atoms: _516  and  _517
REMARK  207  A    between atoms: _520  and  _522
REMARK  208  A    between atoms: _522  and  _523
REMARK  209  A    between atoms: _522  and  _525
REMARK  210  A    between atoms: _525  and  _526
REMARK  211  A    between atoms: _529  and  _531
REMARK  212  A    between atoms: _531  and  _532
REMARK  213  A    between atoms: _531  and  _534
REMARK  214  A    between atoms: _534  and  _535
REMARK  215  A    between atoms: _543  and  _544
REMARK  216  A    between atoms: _543  and  _546
REMARK  217  A    between atoms: _546  and  _547
REMARK  218  A    between atoms: _547  and  _548
REMARK  219  A    between atoms: _551  and  _553
REMARK  220  A    between atoms: _553  and  _554
REMARK  221  A    between atoms: _553  and  _556
REMARK  222  A    between atoms: _556  and  _557
REMARK  223  A    between atoms: _562  and  _564
REMARK  224  A    between atoms: _564  and  _565
REMARK  225  A    between atoms: _564  and  _567
REMARK  226  A    between atoms: _567  and  _568
REMARK  227  A    between atoms: _568  and  _569
REMARK  228  A    between atoms: _569  and  _570
REMARK  229  A    between atoms: _579  and  _581
REMARK  230  A    between atoms: _581  and  _582
REMARK  231  A    between atoms: _581  and  _584
REMARK  232  A    between atoms: _584  and  _585
REMARK  233  A    between atoms: _590  and  _591
REMARK  234  A    between atoms: _590  and  _593
REMARK  235  A    between atoms: _593  and  _594
REMARK  236  A    between atoms: _597  and  _599
REMARK  237  A    between atoms: _599  and  _600
REMARK  238  A    between atoms: _599  and  _602
REMARK  239  A    between atoms: _602  and  _603
REMARK  240  A    between atoms: _603  and  _604
REMARK  241  A    between atoms: _604  and  _605
REMARK  242  A    between atoms: _614  and  _616
REMARK  243  A    between atoms: _616  and  _617
REMARK                            x       y       z     vdW  Elec       q    Type
REMARK                         _______ _______ _______ _____ _____    ______ ____
ROOT
ATOM      1  O   HOH     1      78.589  13.519 124.207  0.00  0.00    +0.000 OA
ENDROOT
TORSDOF 0
REMARK  Name = ../refined-set-2016/3upk/3upk_pocket.pdb
REMARK  243 active torsions:
REMARK  status: ('A' for Active; 'I' for Inactive)
REMARK    1  A    between atoms: _1  and  _3
REMARK    2  A    between atoms: _3  and  _4
REMARK    3  A    between atoms: _3  and  _6
REMARK    4  A    between atoms: _6  and  _7
REMARK    5  A    between atoms: _7  and  _8
REMARK    6  A    between atoms: _8  and  _9
REMARK    7  A    between atoms: _9  and  _10
REMARK    8  A    between atoms: _16  and  _17
REMARK    9  A    between atoms: _16  and  _19
REMARK   10  A    between atoms: _19  and  _20
REMARK   11  A    between atoms: _25  and  _27
REMARK   12  A    between atoms: _27  and  _28
REMARK   13  A    between atoms: _31  and  _33
REMARK   14  A    between atoms: _33  and  _34
REMARK   15  A    between atoms: _33  and  _36
REMARK   16  A    between atoms: _36  and  _37
REMARK   17  A    between atoms: _41  and  _42
REMARK   18  A    between atoms: _47  and  _49
REMARK   19  A    between atoms: _49  and  _50
REMARK   20  A    between atoms: _49  and  _52
REMARK   21  A    between atoms: _52  and  _53
REMARK   22  A    between atoms: _59  and  _61
REMARK   23  A    between atoms: _61  and  _62
REMARK   24  A    between atoms: _61  and  _64
REMARK   25  A    between atoms: _64  and  _65
REMARK   26  A    between atoms: _68  and  _70
REMARK   27  A    between atoms: _70  and  _71
REMARK   28  A    between atoms: _70  and  _73
REMARK   29  A    between atoms: _73  and  _74
REMARK   30  A    between atoms: _74  and  _75
REMARK   31  A    between atoms: _77  and  _79
REMARK   32  A    between atoms: _79  and  _80
REMARK   33  A    between atoms: _79  and  _82
REMARK   34  A    between atoms: _82  and  _83
REMARK   35  A    between atoms: _83  and  _84
REMARK   36  A    between atoms: _84  and  _85
REMARK   37  A    between atoms: _94  and  _96
REMARK   38  A    between atoms: _96  and  _97
REMARK   39  A    between atoms: _100  and  _102
REMARK   40  A    between atoms: _102  and  _103
REMARK   41  A    between atoms: _102  and  _105
REMARK   42  A    between atoms: _105  and  _106
REMARK   43  A    between atoms: _108  and  _110
REMARK   44  A    between atoms: _110  and  _111
REMARK   45  A    between atoms: _110  and  _113
REMARK   46  A    between atoms: _113  and  _114
REMARK   47  A    between atoms: _117  and  _119
REMARK   48  A    between atoms: _119  and  _120
REMARK   49  A    between atoms: _119  and  _122
REMARK   50  A    between atoms: _122  and  _123
REMARK   51  A    between atoms: _133  and  _135
REMARK   52  A    between atoms: _135  and  _136
REMARK   53  A    between atoms: _135  and  _138
REMARK   54  A    between atoms: _138  and  _139
REMARK   55  A    between atoms: _142  and  _144
REMARK   56  A    between atoms: _144  and  _145
REMARK   57  A    between atoms: _147  and  _149
REMARK   58  A    between atoms: _149  and  _150
REMARK   59  A    between atoms: _153  and  _155
REMARK   60  A    between atoms: _155  and  _156
REMARK   61  A    between atoms: _155  and  _158
REMARK   62  A    between atoms: _158  and  _159
REMARK   63  A    between atoms: _159  and  _160
REMARK   64  A    between atoms: _160  and  _161
REMARK   65  A    between atoms: _171  and  _172
REMARK   66  A    between atoms: _177  and  _179
REMARK   67  A    between atoms: _179  and  _180
REMARK   68  A    between atoms: _179  and  _182
REMARK   69  A    between atoms: _185  and  _187
REMARK   70  A    between atoms: _187  and  _188
REMARK   71  A    between atoms: _187  and  _190
REMARK   72  A    between atoms: _190  and  _191
REMARK   73  A    between atoms: _194  and  _196
REMARK   74  A    between atoms: _196  and  _197
REMARK   75  A    between atoms: _196  and  _199
REMARK   76  A    between atoms: _199  and  _200
REMARK   77  A    between atoms: _203  and  _205
REMARK   78  A    between atoms: _205  and  _206
REMARK   79  A    between atoms: _205  and  _208
REMARK   80  A    between atoms: _208  and  _209
REMARK   81  A    between atoms: _214  and  _216
REMARK   82  A    between atoms: _216  and  _217
REMARK   83  A    between atoms: _216  and  _219
REMARK   84  A    between atoms: _219  and  _220
REMARK   85  A    between atoms: _223  and  _225
REMARK   86  A    between atoms: _225  and  _226
REMARK   87  A    between atoms: _225  and  _228
REMARK   88  A    between atoms: _228  and  _229
REMARK   89  A    between atoms: _235  and  _237
REMARK   90  A    between atoms: _237  and  _238
REMARK   91  A    between atoms: _240  and  _242
REMARK   92  A    between atoms: _242  and  _243
REMARK   93  A    between atoms: _242  and  _245
REMARK   94  A    between atoms: _245  and  _246
REMARK   95  A    between atoms: _246  and  _247
REMARK   96  A    between atoms: _249  and  _251
REMARK   97  A    between atoms: _251  and  _252
REMARK   98  A    between atoms: _251  and  _254
REMARK   99  A    between atoms: _254  and  _255
REMARK  100  A    between atoms: _258  and  _260
REMARK  101  A    between atoms: _260  and  _261
REMARK  102  A    between atoms: _260  and  _263
REMARK  103  A    between atoms: _263  and  _264
REMARK  104  A    between atoms: _264  and  _265
REMARK  105  A    between atoms: _265  and  _266
REMARK  106  A    between atoms: _266  and  _267
REMARK  107  A    between atoms: _271  and  _273
REMARK  108  A    between atoms: _273  and  _274
REMARK  109  A    between atoms: _273  and  _276
REMARK  110  A    between atoms: _279  and  _281
REMARK  111  A    between atoms: _281  and  _282
REMARK  112  A    between atoms: _281  and  _284
REMARK  113  A    between atoms: _284  and  _285
REMARK  114  A    between atoms: _287  and  _289
REMARK  115  A    between atoms: _289  and  _290
REMARK  116  A    between atoms: _289  and  _292
REMARK  117  A    between atoms: _295  and  _297
REMARK  118  A    between atoms: _297  and  _298
REMARK  119  A    between atoms: _300  and  _302
REMARK  120  A    between atoms: _302  and  _303
REMARK  121  A    between atoms: _306  and  _308
REMARK  122  A    between atoms: _308  and  _309
REMARK  123  A    between atoms: _308  and  _311
REMARK  124  A    between atoms: _311  and  _312
REMARK  125  A    between atoms: _315  and  _317
REMARK  126  A    between atoms: _317  and  _318
REMARK  127  A    between atoms: _317  and  _320
REMARK  128  A    between atoms: _323  and  _325
REMARK  129  A    between atoms: _325  and  _326
REMARK  130  A    between atoms: _325  and  _328
REMARK  131  A    between atoms: _328  and  _329
REMARK  132  A    between atoms: _332  and  _334
REMARK  133  A    between atoms: _334  and  _335
REMARK  134  A    between atoms: _338  and  _340
REMARK  135  A    between atoms: _340  and  _341
REMARK  136  A    between atoms: _340  and  _343
REMARK  137  A    between atoms: _343  and  _344
REMARK  138  A    between atoms: _344  and  _345
REMARK  139  A    between atoms: _345  and  _346
REMARK  140  A    between atoms: _355  and  _357
REMARK  141  A    between atoms: _357  and  _358
REMARK  142  A    between atoms: _357  and  _360
REMARK  143  A    between atoms: _360  and  _361
REMARK  144  A    between atoms: _361  and  _362
REMARK  145  A    between atoms: _365  and  _367
REMARK  146  A    between atoms: _367  and  _368
REMARK  147  A    between atoms: _367  and  _370
REMARK  148  A    between atoms: _370  and  _371
REMARK  149  A    between atoms: _371  and  _372
REMARK  150  A    between atoms: _375  and  _377
REMARK  151  A    between atoms: _377  and  _378
REMARK  152  A    between atoms: _377  and  _380
REMARK  153  A    between atoms: _380  and  _381
REMARK  154  A    between atoms: _384  and  _386
REMARK  155  A    between atoms: _386  and  _387
REMARK  156  A    between atoms: _386  and  _389
REMARK  157  A    between atoms: _389  and  _390
REMARK  158  A    between atoms: _390  and  _391
REMARK  159  A    between atoms: _391  and  _392
REMARK  160  A    between atoms: _401  and  _403
REMARK  161  A    between atoms: _403  and  _404
REMARK  162  A    between atoms: _403  and  _406
REMARK  163  A    between atoms: _406  and  _407
REMARK  164  A    between atoms: _410  and  _412
REMARK  165  A    between atoms: _412  and  _413
REMARK  166  A    between atoms: _412  and  _415
REMARK  167  A    between atoms: _415  and  _416
REMARK  168  A    between atoms: _419  and  _421
REMARK  169  A    between atoms: _421  and  _422
REMARK  170  A    between atoms: _426  and  _427
REMARK  171  A    between atoms: _432  and  _434
REMARK  172  A    between atoms: _434  and  _435
REMARK  173  A    between atoms: _434  and  _437
REMARK  174  A    between atoms: _437  and  _438
REMARK  175  A    between atoms: _443  and  _445
REMARK  176  A    between atoms: _445  and  _446
REMARK  177  A    between atoms: _445  and  _448
REMARK  178  A    between atoms: _448  and  _449
REMARK  179  A    between atoms: _456  and  _457
REMARK  180  A    between atoms: _462  and  _464
REMARK  181  A    between atoms: _464  and  _465
REMARK  182  A    between atoms: _464  and  _467
REMARK  183  A    between atoms: _467  and  _468
REMARK  184  A    between atoms: _471  and  _473
REMARK  185  A    between atoms: _473  and  _474
REMARK  186  A    between atoms: _473  and  _476
REMARK  187  A    between atoms: _476  and  _477
REMARK  188  A    between atoms: _480  and  _482
REMARK  189  A    between atoms: _482  and  _483
REMARK  190  A    between atoms: _482  and  _485
REMARK  191  A    between atoms: _485  and  _486
REMARK  192  A    between atoms: _486  and  _487
REMARK  193  A    between atoms: _489  and  _491
REMARK  194  A    between atoms: _491  and  _492
REMARK  195  A    between atoms: _491  and  _494
REMARK  196  A    between atoms: _494  and  _495
REMARK  197  A    between atoms: _495  and  _496
REMARK  198  A    between atoms: _501  and  _503
REMARK  199  A    between atoms: _503  and  _504
REMARK  200  A    between atoms: _503  and  _506
REMARK  201  A    between atoms: _506  and  _507
REMARK  202  A    between atoms: _507  and  _508
REMARK  203  A    between atoms: _511  and  _513
REMARK  204  A    between atoms: _513  and  _514
REMARK  205  A    between atoms: _513  and  _516
REMARK  206  A    between atoms: _516  and  _517
REMARK  207  A    between atoms: _520  and  _522
REMARK  208  A    between atoms: _522  and  _523
REMARK  209  A    between atoms: _522  and  _525
REMARK  210  A    between atoms: _525  and  _526
REMARK  211  A    between atoms: _529  and  _531
REMARK  212  A    between atoms: _531  and  _532
REMARK  213  A    between atoms: _531  and  _534
REMARK  214  A    between atoms: _534  and  _535
REMARK  215  A    between atoms: _543  and  _544
REMARK  216  A    between atoms: _543  and  _546
REMARK  217  A    between atoms: _546  and  _547
REMARK  218  A    between atoms: _547  and  _548
REMARK  219  A    between atoms: _551  and  _553
REMARK  220  A    between atoms: _553  and  _554
REMARK  221  A    between atoms: _553  and  _556
REMARK  222  A    between atoms: _556  and  _557
REMARK  223  A    between atoms: _562  and  _564
REMARK  224  A    between atoms: _564  and  _565
REMARK  225  A    between atoms: _564  and  _567
REMARK  226  A    between atoms: _567  and  _568
REMARK  227  A    between atoms: _568  and  _569
REMARK  228  A    between atoms: _569  and  _570
REMARK  229  A    between atoms: _579  and  _581
REMARK  230  A    between atoms: _581  and  _582
REMARK  231  A    between atoms: _581  and  _584
REMARK  232  A    between atoms: _584  and  _585
REMARK  233  A    between atoms: _590  and  _591
REMARK  234  A    between atoms: _590  and  _593
REMARK  235  A    between atoms: _593  and  _594
REMARK  236  A    between atoms: _597  and  _599
REMARK  237  A    between atoms: _599  and  _600
REMARK  238  A    between atoms: _599  and  _602
REMARK  239  A    between atoms: _602  and  _603
REMARK  240  A    between atoms: _603  and  _604
REMARK  241  A    between atoms: _604  and  _605
REMARK  242  A    between atoms: _614  and  _616
REMARK  243  A    between atoms: _616  and  _617
REMARK                            x       y       z     vdW  Elec       q    Type
REMARK                         _______ _______ _______ _____ _____    ______ ____
ROOT
ATOM      1  O   HOH     1      90.741  -0.446 133.103  0.00  0.00    +0.000 OA
ENDROOT
TORSDOF 0
REMARK  Name = ../refined-set-2016/3upk/3upk_pocket.pdb
REMARK  243 active torsions:
REMARK  status: ('A' for Active; 'I' for Inactive)
REMARK    1  A    between atoms: _1  and  _3
REMARK    2  A    between atoms: _3  and  _4
REMARK    3  A    between atoms: _3  and  _6
REMARK    4  A    between atoms: _6  and  _7
REMARK    5  A    between atoms: _7  and  _8
REMARK    6  A    between atoms: _8  and  _9
REMARK    7  A    between atoms: _9  and  _10
REMARK    8  A    between atoms: _16  and  _17
REMARK    9  A    between atoms: _16  and  _19
REMARK   10  A    between atoms: _19  and  _20
REMARK   11  A    between atoms: _25  and  _27
REMARK   12  A    between atoms: _27  and  _28
REMARK   13  A    between atoms: _31  and  _33
REMARK   14  A    between atoms: _33  and  _34
REMARK   15  A    between atoms: _33  and  _36
REMARK   16  A    between atoms: _36  and  _37
REMARK   17  A    between atoms: _41  and  _42
REMARK   18  A    between atoms: _47  and  _49
REMARK   19  A    between atoms: _49  and  _50
REMARK   20  A    between atoms: _49  and  _52
REMARK   21  A    between atoms: _52  and  _53
REMARK   22  A    between atoms: _59  and  _61
REMARK   23  A    between atoms: _61  and  _62
REMARK   24  A    between atoms: _61  and  _64
REMARK   25  A    between atoms: _64  and  _65
REMARK   26  A    between atoms: _68  and  _70
REMARK   27  A    between atoms: _70  and  _71
REMARK   28  A    between atoms: _70  and  _73
REMARK   29  A    between atoms: _73  and  _74
REMARK   30  A    between atoms: _74  and  _75
REMARK   31  A    between atoms: _77  and  _79
REMARK   32  A    between atoms: _79  and  _80
REMARK   33  A    between atoms: _79  and  _82
REMARK   34  A    between atoms: _82  and  _83
REMARK   35  A    between atoms: _83  and  _84
REMARK   36  A    between atoms: _84  and  _85
REMARK   37  A    between atoms: _94  and  _96
REMARK   38  A    between atoms: _96  and  _97
REMARK   39  A    between atoms: _100  and  _102
REMARK   40  A    between atoms: _102  and  _103
REMARK   41  A    between atoms: _102  and  _105
REMARK   42  A    between atoms: _105  and  _106
REMARK   43  A    between atoms: _108  and  _110
REMARK   44  A    between atoms: _110  and  _111
REMARK   45  A    between atoms: _110  and  _113
REMARK   46  A    between atoms: _113  and  _114
REMARK   47  A    between atoms: _117  and  _119
REMARK   48  A    between atoms: _119  and  _120
REMARK   49  A    between atoms: _119  and  _122
REMARK   50  A    between atoms: _122  and  _123
REMARK   51  A    between atoms: _133  and  _135
REMARK   52  A    between atoms: _135  and  _136
REMARK   53  A    between atoms: _135  and  _138
REMARK   54  A    between atoms: _138  and  _139
REMARK   55  A    between atoms: _142  and  _144
REMARK   56  A    between atoms: _144  and  _145
REMARK   57  A    between atoms: _147  and  _149
REMARK   58  A    between atoms: _149  and  _150
REMARK   59  A    between atoms: _153  and  _155
REMARK   60  A    between atoms: _155  and  _156
REMARK   61  A    between atoms: _155  and  _158
REMARK   62  A    between atoms: _158  and  _159
REMARK   63  A    between atoms: _159  and  _160
REMARK   64  A    between atoms: _160  and  _161
REMARK   65  A    between atoms: _171  and  _172
REMARK   66  A    between atoms: _177  and  _179
REMARK   67  A    between atoms: _179  and  _180
REMARK   68  A    between atoms: _179  and  _182
REMARK   69  A    between atoms: _185  and  _187
REMARK   70  A    between atoms: _187  and  _188
REMARK   71  A    between atoms: _187  and  _190
REMARK   72  A    between atoms: _190  and  _191
REMARK   73  A    between atoms: _194  and  _196
REMARK   74  A    between atoms: _196  and  _197
REMARK   75  A    between atoms: _196  and  _199
REMARK   76  A    between atoms: _199  and  _200
REMARK   77  A    between atoms: _203  and  _205
REMARK   78  A    between atoms: _205  and  _206
REMARK   79  A    between atoms: _205  and  _208
REMARK   80  A    between atoms: _208  and  _209
REMARK   81  A    between atoms: _214  and  _216
REMARK   82  A    between atoms: _216  and  _217
REMARK   83  A    between atoms: _216  and  _219
REMARK   84  A    between atoms: _219  and  _220
REMARK   85  A    between atoms: _223  and  _225
REMARK   86  A    between atoms: _225  and  _226
REMARK   87  A    between atoms: _225  and  _228
REMARK   88  A    between atoms: _228  and  _229
REMARK   89  A    between atoms: _235  and  _237
REMARK   90  A    between atoms: _237  and  _238
REMARK   91  A    between atoms: _240  and  _242
REMARK   92  A    between atoms: _242  and  _243
REMARK   93  A    between atoms: _242  and  _245
REMARK   94  A    between atoms: _245  and  _246
REMARK   95  A    between atoms: _246  and  _247
REMARK   96  A    between atoms: _249  and  _251
REMARK   97  A    between atoms: _251  and  _252
REMARK   98  A    between atoms: _251  and  _254
REMARK   99  A    between atoms: _254  and  _255
REMARK  100  A    between atoms: _258  and  _260
REMARK  101  A    between atoms: _260  and  _261
REMARK  102  A    between atoms: _260  and  _263
REMARK  103  A    between atoms: _263  and  _264
REMARK  104  A    between atoms: _264  and  _265
REMARK  105  A    between atoms: _265  and  _266
REMARK  106  A    between atoms: _266  and  _267
REMARK  107  A    between atoms: _271  and  _273
REMARK  108  A    between atoms: _273  and  _274
REMARK  109  A    between atoms: _273  and  _276
REMARK  110  A    between atoms: _279  and  _281
REMARK  111  A    between atoms: _281  and  _282
REMARK  112  A    between atoms: _281  and  _284
REMARK  113  A    between atoms: _284  and  _285
REMARK  114  A    between atoms: _287  and  _289
REMARK  115  A    between atoms: _289  and  _290
REMARK  116  A    between atoms: _289  and  _292
REMARK  117  A    between atoms: _295  and  _297
REMARK  118  A    between atoms: _297  and  _298
REMARK  119  A    between atoms: _300  and  _302
REMARK  120  A    between atoms: _302  and  _303
REMARK  121  A    between atoms: _306  and  _308
REMARK  122  A    between atoms: _308  and  _309
REMARK  123  A    between atoms: _308  and  _311
REMARK  124  A    between atoms: _311  and  _312
REMARK  125  A    between atoms: _315  and  _317
REMARK  126  A    between atoms: _317  and  _318
REMARK  127  A    between atoms: _317  and  _320
REMARK  128  A    between atoms: _323  and  _325
REMARK  129  A    between atoms: _325  and  _326
REMARK  130  A    between atoms: _325  and  _328
REMARK  131  A    between atoms: _328  and  _329
REMARK  132  A    between atoms: _332  and  _334
REMARK  133  A    between atoms: _334  and  _335
REMARK  134  A    between atoms: _338  and  _340
REMARK  135  A    between atoms: _340  and  _341
REMARK  136  A    between atoms: _340  and  _343
REMARK  137  A    between atoms: _343  and  _344
REMARK  138  A    between atoms: _344  and  _345
REMARK  139  A    between atoms: _345  and  _346
REMARK  140  A    between atoms: _355  and  _357
REMARK  141  A    between atoms: _357  and  _358
REMARK  142  A    between atoms: _357  and  _360
REMARK  143  A    between atoms: _360  and  _361
REMARK  144  A    between atoms: _361  and  _362
REMARK  145  A    between atoms: _365  and  _367
REMARK  146  A    between atoms: _367  and  _368
REMARK  147  A    between atoms: _367  and  _370
REMARK  148  A    between atoms: _370  and  _371
REMARK  149  A    between atoms: _371  and  _372
REMARK  150  A    between atoms: _375  and  _377
REMARK  151  A    between atoms: _377  and  _378
REMARK  152  A    between atoms: _377  and  _380
REMARK  153  A    between atoms: _380  and  _381
REMARK  154  A    between atoms: _384  and  _386
REMARK  155  A    between atoms: _386  and  _387
REMARK  156  A    between atoms: _386  and  _389
REMARK  157  A    between atoms: _389  and  _390
REMARK  158  A    between atoms: _390  and  _391
REMARK  159  A    between atoms: _391  and  _392
REMARK  160  A    between atoms: _401  and  _403
REMARK  161  A    between atoms: _403  and  _404
REMARK  162  A    between atoms: _403  and  _406
REMARK  163  A    between atoms: _406  and  _407
REMARK  164  A    between atoms: _410  and  _412
REMARK  165  A    between atoms: _412  and  _413
REMARK  166  A    between atoms: _412  and  _415
REMARK  167  A    between atoms: _415  and  _416
REMARK  168  A    between atoms: _419  and  _421
REMARK  169  A    between atoms: _421  and  _422
REMARK  170  A    between atoms: _426  and  _427
REMARK  171  A    between atoms: _432  and  _434
REMARK  172  A    between atoms: _434  and  _435
REMARK  173  A    between atoms: _434  and  _437
REMARK  174  A    between atoms: _437  and  _438
REMARK  175  A    between atoms: _443  and  _445
REMARK  176  A    between atoms: _445  and  _446
REMARK  177  A    between atoms: _445  and  _448
REMARK  178  A    between atoms: _448  and  _449
REMARK  179  A    between atoms: _456  and  _457
REMARK  180  A    between atoms: _462  and  _464
REMARK  181  A    between atoms: _464  and  _465
REMARK  182  A    between atoms: _464  and  _467
REMARK  183  A    between atoms: _467  and  _468
REMARK  184  A    between atoms: _471  and  _473
REMARK  185  A    between atoms: _473  and  _474
REMARK  186  A    between atoms: _473  and  _476
REMARK  187  A    between atoms: _476  and  _477
REMARK  188  A    between atoms: _480  and  _482
REMARK  189  A    between atoms: _482  and  _483
REMARK  190  A    between atoms: _482  and  _485
REMARK  191  A    between atoms: _485  and  _486
REMARK  192  A    between atoms: _486  and  _487
REMARK  193  A    between atoms: _489  and  _491
REMARK  194  A    between atoms: _491  and  _492
REMARK  195  A    between atoms: _491  and  _494
REMARK  196  A    between atoms: _494  and  _495
REMARK  197  A    between atoms: _495  and  _496
REMARK  198  A    between atoms: _501  and  _503
REMARK  199  A    between atoms: _503  and  _504
REMARK  200  A    between atoms: _503  and  _506
REMARK  201  A    between atoms: _506  and  _507
REMARK  202  A    between atoms: _507  and  _508
REMARK  203  A    between atoms: _511  and  _513
REMARK  204  A    between atoms: _513  and  _514
REMARK  205  A    between atoms: _513  and  _516
REMARK  206  A    between atoms: _516  and  _517
REMARK  207  A    between atoms: _520  and  _522
REMARK  208  A    between atoms: _522  and  _523
REMARK  209  A    between atoms: _522  and  _525
REMARK  210  A    between atoms: _525  and  _526
REMARK  211  A    between atoms: _529  and  _531
REMARK  212  A    between atoms: _531  and  _532
REMARK  213  A    between atoms: _531  and  _534
REMARK  214  A    between atoms: _534  and  _535
REMARK  215  A    between atoms: _543  and  _544
REMARK  216  A    between atoms: _543  and  _546
REMARK  217  A    between atoms: _546  and  _547
REMARK  218  A    between atoms: _547  and  _548
REMARK  219  A    between atoms: _551  and  _553
REMARK  220  A    between atoms: _553  and  _554
REMARK  221  A    between atoms: _553  and  _556
REMARK  222  A    between atoms: _556  and  _557
REMARK  223  A    between atoms: _562  and  _564
REMARK  224  A    between atoms: _564  and  _565
REMARK  225  A    between atoms: _564  and  _567
REMARK  226  A    between atoms: _567  and  _568
REMARK  227  A    between atoms: _568  and  _569
REMARK  228  A    between atoms: _569  and  _570
REMARK  229  A    between atoms: _579  and  _581
REMARK  230  A    between atoms: _581  and  _582
REMARK  231  A    between atoms: _581  and  _584
REMARK  232  A    between atoms: _584  and  _585
REMARK  233  A    between atoms: _590  and  _591
REMARK  234  A    between atoms: _590  and  _593
REMARK  235  A    between atoms: _593  and  _594
REMARK  236  A    between atoms: _597  and  _599
REMARK  237  A    between atoms: _599  and  _600
REMARK  238  A    between atoms: _599  and  _602
REMARK  239  A    between atoms: _602  and  _603
REMARK  240  A    between atoms: _603  and  _604
REMARK  241  A    between atoms: _604  and  _605
REMARK  242  A    between atoms: _614  and  _616
REMARK  243  A    between atoms: _616  and  _617
REMARK                            x       y       z     vdW  Elec       q    Type
REMARK                         _______ _______ _______ _____ _____    ______ ____
ROOT
ATOM      1  O   HOH     1      89.819  -7.756 130.376  0.00  0.00    +0.000 OA
ENDROOT
TORSDOF 0
REMARK  Name = ../refined-set-2016/3upk/3upk_pocket.pdb
REMARK  243 active torsions:
REMARK  status: ('A' for Active; 'I' for Inactive)
REMARK    1  A    between atoms: _1  and  _3
REMARK    2  A    between atoms: _3  and  _4
REMARK    3  A    between atoms: _3  and  _6
REMARK    4  A    between atoms: _6  and  _7
REMARK    5  A    between atoms: _7  and  _8
REMARK    6  A    between atoms: _8  and  _9
REMARK    7  A    between atoms: _9  and  _10
REMARK    8  A    between atoms: _16  and  _17
REMARK    9  A    between atoms: _16  and  _19
REMARK   10  A    between atoms: _19  and  _20
REMARK   11  A    between atoms: _25  and  _27
REMARK   12  A    between atoms: _27  and  _28
REMARK   13  A    between atoms: _31  and  _33
REMARK   14  A    between atoms: _33  and  _34
REMARK   15  A    between atoms: _33  and  _36
REMARK   16  A    between atoms: _36  and  _37
REMARK   17  A    between atoms: _41  and  _42
REMARK   18  A    between atoms: _47  and  _49
REMARK   19  A    between atoms: _49  and  _50
REMARK   20  A    between atoms: _49  and  _52
REMARK   21  A    between atoms: _52  and  _53
REMARK   22  A    between atoms: _59  and  _61
REMARK   23  A    between atoms: _61  and  _62
REMARK   24  A    between atoms: _61  and  _64
REMARK   25  A    between atoms: _64  and  _65
REMARK   26  A    between atoms: _68  and  _70
REMARK   27  A    between atoms: _70  and  _71
REMARK   28  A    between atoms: _70  and  _73
REMARK   29  A    between atoms: _73  and  _74
REMARK   30  A    between atoms: _74  and  _75
REMARK   31  A    between atoms: _77  and  _79
REMARK   32  A    between atoms: _79  and  _80
REMARK   33  A    between atoms: _79  and  _82
REMARK   34  A    between atoms: _82  and  _83
REMARK   35  A    between atoms: _83  and  _84
REMARK   36  A    between atoms: _84  and  _85
REMARK   37  A    between atoms: _94  and  _96
REMARK   38  A    between atoms: _96  and  _97
REMARK   39  A    between atoms: _100  and  _102
REMARK   40  A    between atoms: _102  and  _103
REMARK   41  A    between atoms: _102  and  _105
REMARK   42  A    between atoms: _105  and  _106
REMARK   43  A    between atoms: _108  and  _110
REMARK   44  A    between atoms: _110  and  _111
REMARK   45  A    between atoms: _110  and  _113
REMARK   46  A    between atoms: _113  and  _114
REMARK   47  A    between atoms: _117  and  _119
REMARK   48  A    between atoms: _119  and  _120
REMARK   49  A    between atoms: _119  and  _122
REMARK   50  A    between atoms: _122  and  _123
REMARK   51  A    between atoms: _133  and  _135
REMARK   52  A    between atoms: _135  and  _136
REMARK   53  A    between atoms: _135  and  _138
REMARK   54  A    between atoms: _138  and  _139
REMARK   55  A    between atoms: _142  and  _144
REMARK   56  A    between atoms: _144  and  _145
REMARK   57  A    between atoms: _147  and  _149
REMARK   58  A    between atoms: _149  and  _150
REMARK   59  A    between atoms: _153  and  _155
REMARK   60  A    between atoms: _155  and  _156
REMARK   61  A    between atoms: _155  and  _158
REMARK   62  A    between atoms: _158  and  _159
REMARK   63  A    between atoms: _159  and  _160
REMARK   64  A    between atoms: _160  and  _161
REMARK   65  A    between atoms: _171  and  _172
REMARK   66  A    between atoms: _177  and  _179
REMARK   67  A    between atoms: _179  and  _180
REMARK   68  A    between atoms: _179  and  _182
REMARK   69  A    between atoms: _185  and  _187
REMARK   70  A    between atoms: _187  and  _188
REMARK   71  A    between atoms: _187  and  _190
REMARK   72  A    between atoms: _190  and  _191
REMARK   73  A    between atoms: _194  and  _196
REMARK   74  A    between atoms: _196  and  _197
REMARK   75  A    between atoms: _196  and  _199
REMARK   76  A    between atoms: _199  and  _200
REMARK   77  A    between atoms: _203  and  _205
REMARK   78  A    between atoms: _205  and  _206
REMARK   79  A    between atoms: _205  and  _208
REMARK   80  A    between atoms: _208  and  _209
REMARK   81  A    between atoms: _214  and  _216
REMARK   82  A    between atoms: _216  and  _217
REMARK   83  A    between atoms: _216  and  _219
REMARK   84  A    between atoms: _219  and  _220
REMARK   85  A    between atoms: _223  and  _225
REMARK   86  A    between atoms: _225  and  _226
REMARK   87  A    between atoms: _225  and  _228
REMARK   88  A    between atoms: _228  and  _229
REMARK   89  A    between atoms: _235  and  _237
REMARK   90  A    between atoms: _237  and  _238
REMARK   91  A    between atoms: _240  and  _242
REMARK   92  A    between atoms: _242  and  _243
REMARK   93  A    between atoms: _242  and  _245
REMARK   94  A    between atoms: _245  and  _246
REMARK   95  A    between atoms: _246  and  _247
REMARK   96  A    between atoms: _249  and  _251
REMARK   97  A    between atoms: _251  and  _252
REMARK   98  A    between atoms: _251  and  _254
REMARK   99  A    between atoms: _254  and  _255
REMARK  100  A    between atoms: _258  and  _260
REMARK  101  A    between atoms: _260  and  _261
REMARK  102  A    between atoms: _260  and  _263
REMARK  103  A    between atoms: _263  and  _264
REMARK  104  A    between atoms: _264  and  _265
REMARK  105  A    between atoms: _265  and  _266
REMARK  106  A    between atoms: _266  and  _267
REMARK  107  A    between atoms: _271  and  _273
REMARK  108  A    between atoms: _273  and  _274
REMARK  109  A    between atoms: _273  and  _276
REMARK  110  A    between atoms: _279  and  _281
REMARK  111  A    between atoms: _281  and  _282
REMARK  112  A    between atoms: _281  and  _284
REMARK  113  A    between atoms: _284  and  _285
REMARK  114  A    between atoms: _287  and  _289
REMARK  115  A    between atoms: _289  and  _290
REMARK  116  A    between atoms: _289  and  _292
REMARK  117  A    between atoms: _295  and  _297
REMARK  118  A    between atoms: _297  and  _298
REMARK  119  A    between atoms: _300  and  _302
REMARK  120  A    between atoms: _302  and  _303
REMARK  121  A    between atoms: _306  and  _308
REMARK  122  A    between atoms: _308  and  _309
REMARK  123  A    between atoms: _308  and  _311
REMARK  124  A    between atoms: _311  and  _312
REMARK  125  A    between atoms: _315  and  _317
REMARK  126  A    between atoms: _317  and  _318
REMARK  127  A    between atoms: _317  and  _320
REMARK  128  A    between atoms: _323  and  _325
REMARK  129  A    between atoms: _325  and  _326
REMARK  130  A    between atoms: _325  and  _328
REMARK  131  A    between atoms: _328  and  _329
REMARK  132  A    between atoms: _332  and  _334
REMARK  133  A    between atoms: _334  and  _335
REMARK  134  A    between atoms: _338  and  _340
REMARK  135  A    between atoms: _340  and  _341
REMARK  136  A    between atoms: _340  and  _343
REMARK  137  A    between atoms: _343  and  _344
REMARK  138  A    between atoms: _344  and  _345
REMARK  139  A    between atoms: _345  and  _346
REMARK  140  A    between atoms: _355  and  _357
REMARK  141  A    between atoms: _357  and  _358
REMARK  142  A    between atoms: _357  and  _360
REMARK  143  A    between atoms: _360  and  _361
REMARK  144  A    between atoms: _361  and  _362
REMARK  145  A    between atoms: _365  and  _367
REMARK  146  A    between atoms: _367  and  _368
REMARK  147  A    between atoms: _367  and  _370
REMARK  148  A    between atoms: _370  and  _371
REMARK  149  A    between atoms: _371  and  _372
REMARK  150  A    between atoms: _375  and  _377
REMARK  151  A    between atoms: _377  and  _378
REMARK  152  A    between atoms: _377  and  _380
REMARK  153  A    between atoms: _380  and  _381
REMARK  154  A    between atoms: _384  and  _386
REMARK  155  A    between atoms: _386  and  _387
REMARK  156  A    between atoms: _386  and  _389
REMARK  157  A    between atoms: _389  and  _390
REMARK  158  A    between atoms: _390  and  _391
REMARK  159  A    between atoms: _391  and  _392
REMARK  160  A    between atoms: _401  and  _403
REMARK  161  A    between atoms: _403  and  _404
REMARK  162  A    between atoms: _403  and  _406
REMARK  163  A    between atoms: _406  and  _407
REMARK  164  A    between atoms: _410  and  _412
REMARK  165  A    between atoms: _412  and  _413
REMARK  166  A    between atoms: _412  and  _415
REMARK  167  A    between atoms: _415  and  _416
REMARK  168  A    between atoms: _419  and  _421
REMARK  169  A    between atoms: _421  and  _422
REMARK  170  A    between atoms: _426  and  _427
REMARK  171  A    between atoms: _432  and  _434
REMARK  172  A    between atoms: _434  and  _435
REMARK  173  A    between atoms: _434  and  _437
REMARK  174  A    between atoms: _437  and  _438
REMARK  175  A    between atoms: _443  and  _445
REMARK  176  A    between atoms: _445  and  _446
REMARK  177  A    between atoms: _445  and  _448
REMARK  178  A    between atoms: _448  and  _449
REMARK  179  A    between atoms: _456  and  _457
REMARK  180  A    between atoms: _462  and  _464
REMARK  181  A    between atoms: _464  and  _465
REMARK  182  A    between atoms: _464  and  _467
REMARK  183  A    between atoms: _467  and  _468
REMARK  184  A    between atoms: _471  and  _473
REMARK  185  A    between atoms: _473  and  _474
REMARK  186  A    between atoms: _473  and  _476
REMARK  187  A    between atoms: _476  and  _477
REMARK  188  A    between atoms: _480  and  _482
REMARK  189  A    between atoms: _482  and  _483
REMARK  190  A    between atoms: _482  and  _485
REMARK  191  A    between atoms: _485  and  _486
REMARK  192  A    between atoms: _486  and  _487
REMARK  193  A    between atoms: _489  and  _491
REMARK  194  A    between atoms: _491  and  _492
REMARK  195  A    between atoms: _491  and  _494
REMARK  196  A    between atoms: _494  and  _495
REMARK  197  A    between atoms: _495  and  _496
REMARK  198  A    between atoms: _501  and  _503
REMARK  199  A    between atoms: _503  and  _504
REMARK  200  A    between atoms: _503  and  _506
REMARK  201  A    between atoms: _506  and  _507
REMARK  202  A    between atoms: _507  and  _508
REMARK  203  A    between atoms: _511  and  _513
REMARK  204  A    between atoms: _513  and  _514
REMARK  205  A    between atoms: _513  and  _516
REMARK  206  A    between atoms: _516  and  _517
REMARK  207  A    between atoms: _520  and  _522
REMARK  208  A    between atoms: _522  and  _523
REMARK  209  A    between atoms: _522  and  _525
REMARK  210  A    between atoms: _525  and  _526
REMARK  211  A    between atoms: _529  and  _531
REMARK  212  A    between atoms: _531  and  _532
REMARK  213  A    between atoms: _531  and  _534
REMARK  214  A    between atoms: _534  and  _535
REMARK  215  A    between atoms: _543  and  _544
REMARK  216  A    between atoms: _543  and  _546
REMARK  217  A    between atoms: _546  and  _547
REMARK  218  A    between atoms: _547  and  _548
REMARK  219  A    between atoms: _551  and  _553
REMARK  220  A    between atoms: _553  and  _554
REMARK  221  A    between atoms: _553  and  _556
REMARK  222  A    between atoms: _556  and  _557
REMARK  223  A    between atoms: _562  and  _564
REMARK  224  A    between atoms: _564  and  _565
REMARK  225  A    between atoms: _564  and  _567
REMARK  226  A    between atoms: _567  and  _568
REMARK  227  A    between atoms: _568  and  _569
REMARK  228  A    between atoms: _569  and  _570
REMARK  229  A    between atoms: _579  and  _581
REMARK  230  A    between atoms: _581  and  _582
REMARK  231  A    between atoms: _581  and  _584
REMARK  232  A    between atoms: _584  and  _585
REMARK  233  A    between atoms: _590  and  _591
REMARK  234  A    between atoms: _590  and  _593
REMARK  235  A    between atoms: _593  and  _594
REMARK  236  A    between atoms: _597  and  _599
REMARK  237  A    between atoms: _599  and  _600
REMARK  238  A    between atoms: _599  and  _602
REMARK  239  A    between atoms: _602  and  _603
REMARK  240  A    between atoms: _603  and  _604
REMARK  241  A    between atoms: _604  and  _605
REMARK  242  A    between atoms: _614  and  _616
REMARK  243  A    between atoms: _616  and  _617
REMARK                            x       y       z     vdW  Elec       q    Type
REMARK                         _______ _______ _______ _____ _____    ______ ____
ROOT
ATOM      1  O   HOH     1      84.820  -4.158 130.242  0.00  0.00    +0.000 OA
ENDROOT
TORSDOF 0
REMARK  Name = ../refined-set-2016/3upk/3upk_pocket.pdb
REMARK  243 active torsions:
REMARK  status: ('A' for Active; 'I' for Inactive)
REMARK    1  A    between atoms: _1  and  _3
REMARK    2  A    between atoms: _3  and  _4
REMARK    3  A    between atoms: _3  and  _6
REMARK    4  A    between atoms: _6  and  _7
REMARK    5  A    between atoms: _7  and  _8
REMARK    6  A    between atoms: _8  and  _9
REMARK    7  A    between atoms: _9  and  _10
REMARK    8  A    between atoms: _16  and  _17
REMARK    9  A    between atoms: _16  and  _19
REMARK   10  A    between atoms: _19  and  _20
REMARK   11  A    between atoms: _25  and  _27
REMARK   12  A    between atoms: _27  and  _28
REMARK   13  A    between atoms: _31  and  _33
REMARK   14  A    between atoms: _33  and  _34
REMARK   15  A    between atoms: _33  and  _36
REMARK   16  A    between atoms: _36  and  _37
REMARK   17  A    between atoms: _41  and  _42
REMARK   18  A    between atoms: _47  and  _49
REMARK   19  A    between atoms: _49  and  _50
REMARK   20  A    between atoms: _49  and  _52
REMARK   21  A    between atoms: _52  and  _53
REMARK   22  A    between atoms: _59  and  _61
REMARK   23  A    between atoms: _61  and  _62
REMARK   24  A    between atoms: _61  and  _64
REMARK   25  A    between atoms: _64  and  _65
REMARK   26  A    between atoms: _68  and  _70
REMARK   27  A    between atoms: _70  and  _71
REMARK   28  A    between atoms: _70  and  _73
REMARK   29  A    between atoms: _73  and  _74
REMARK   30  A    between atoms: _74  and  _75
REMARK   31  A    between atoms: _77  and  _79
REMARK   32  A    between atoms: _79  and  _80
REMARK   33  A    between atoms: _79  and  _82
REMARK   34  A    between atoms: _82  and  _83
REMARK   35  A    between atoms: _83  and  _84
REMARK   36  A    between atoms: _84  and  _85
REMARK   37  A    between atoms: _94  and  _96
REMARK   38  A    between atoms: _96  and  _97
REMARK   39  A    between atoms: _100  and  _102
REMARK   40  A    between atoms: _102  and  _103
REMARK   41  A    between atoms: _102  and  _105
REMARK   42  A    between atoms: _105  and  _106
REMARK   43  A    between atoms: _108  and  _110
REMARK   44  A    between atoms: _110  and  _111
REMARK   45  A    between atoms: _110  and  _113
REMARK   46  A    between atoms: _113  and  _114
REMARK   47  A    between atoms: _117  and  _119
REMARK   48  A    between atoms: _119  and  _120
REMARK   49  A    between atoms: _119  and  _122
REMARK   50  A    between atoms: _122  and  _123
REMARK   51  A    between atoms: _133  and  _135
REMARK   52  A    between atoms: _135  and  _136
REMARK   53  A    between atoms: _135  and  _138
REMARK   54  A    between atoms: _138  and  _139
REMARK   55  A    between atoms: _142  and  _144
REMARK   56  A    between atoms: _144  and  _145
REMARK   57  A    between atoms: _147  and  _149
REMARK   58  A    between atoms: _149  and  _150
REMARK   59  A    between atoms: _153  and  _155
REMARK   60  A    between atoms: _155  and  _156
REMARK   61  A    between atoms: _155  and  _158
REMARK   62  A    between atoms: _158  and  _159
REMARK   63  A    between atoms: _159  and  _160
REMARK   64  A    between atoms: _160  and  _161
REMARK   65  A    between atoms: _171  and  _172
REMARK   66  A    between atoms: _177  and  _179
REMARK   67  A    between atoms: _179  and  _180
REMARK   68  A    between atoms: _179  and  _182
REMARK   69  A    between atoms: _185  and  _187
REMARK   70  A    between atoms: _187  and  _188
REMARK   71  A    between atoms: _187  and  _190
REMARK   72  A    between atoms: _190  and  _191
REMARK   73  A    between atoms: _194  and  _196
REMARK   74  A    between atoms: _196  and  _197
REMARK   75  A    between atoms: _196  and  _199
REMARK   76  A    between atoms: _199  and  _200
REMARK   77  A    between atoms: _203  and  _205
REMARK   78  A    between atoms: _205  and  _206
REMARK   79  A    between atoms: _205  and  _208
REMARK   80  A    between atoms: _208  and  _209
REMARK   81  A    between atoms: _214  and  _216
REMARK   82  A    between atoms: _216  and  _217
REMARK   83  A    between atoms: _216  and  _219
REMARK   84  A    between atoms: _219  and  _220
REMARK   85  A    between atoms: _223  and  _225
REMARK   86  A    between atoms: _225  and  _226
REMARK   87  A    between atoms: _225  and  _228
REMARK   88  A    between atoms: _228  and  _229
REMARK   89  A    between atoms: _235  and  _237
REMARK   90  A    between atoms: _237  and  _238
REMARK   91  A    between atoms: _240  and  _242
REMARK   92  A    between atoms: _242  and  _243
REMARK   93  A    between atoms: _242  and  _245
REMARK   94  A    between atoms: _245  and  _246
REMARK   95  A    between atoms: _246  and  _247
REMARK   96  A    between atoms: _249  and  _251
REMARK   97  A    between atoms: _251  and  _252
REMARK   98  A    between atoms: _251  and  _254
REMARK   99  A    between atoms: _254  and  _255
REMARK  100  A    between atoms: _258  and  _260
REMARK  101  A    between atoms: _260  and  _261
REMARK  102  A    between atoms: _260  and  _263
REMARK  103  A    between atoms: _263  and  _264
REMARK  104  A    between atoms: _264  and  _265
REMARK  105  A    between atoms: _265  and  _266
REMARK  106  A    between atoms: _266  and  _267
REMARK  107  A    between atoms: _271  and  _273
REMARK  108  A    between atoms: _273  and  _274
REMARK  109  A    between atoms: _273  and  _276
REMARK  110  A    between atoms: _279  and  _281
REMARK  111  A    between atoms: _281  and  _282
REMARK  112  A    between atoms: _281  and  _284
REMARK  113  A    between atoms: _284  and  _285
REMARK  114  A    between atoms: _287  and  _289
REMARK  115  A    between atoms: _289  and  _290
REMARK  116  A    between atoms: _289  and  _292
REMARK  117  A    between atoms: _295  and  _297
REMARK  118  A    between atoms: _297  and  _298
REMARK  119  A    between atoms: _300  and  _302
REMARK  120  A    between atoms: _302  and  _303
REMARK  121  A    between atoms: _306  and  _308
REMARK  122  A    between atoms: _308  and  _309
REMARK  123  A    between atoms: _308  and  _311
REMARK  124  A    between atoms: _311  and  _312
REMARK  125  A    between atoms: _315  and  _317
REMARK  126  A    between atoms: _317  and  _318
REMARK  127  A    between atoms: _317  and  _320
REMARK  128  A    between atoms: _323  and  _325
REMARK  129  A    between atoms: _325  and  _326
REMARK  130  A    between atoms: _325  and  _328
REMARK  131  A    between atoms: _328  and  _329
REMARK  132  A    between atoms: _332  and  _334
REMARK  133  A    between atoms: _334  and  _335
REMARK  134  A    between atoms: _338  and  _340
REMARK  135  A    between atoms: _340  and  _341
REMARK  136  A    between atoms: _340  and  _343
REMARK  137  A    between atoms: _343  and  _344
REMARK  138  A    between atoms: _344  and  _345
REMARK  139  A    between atoms: _345  and  _346
REMARK  140  A    between atoms: _355  and  _357
REMARK  141  A    between atoms: _357  and  _358
REMARK  142  A    between atoms: _357  and  _360
REMARK  143  A    between atoms: _360  and  _361
REMARK  144  A    between atoms: _361  and  _362
REMARK  145  A    between atoms: _365  and  _367
REMARK  146  A    between atoms: _367  and  _368
REMARK  147  A    between atoms: _367  and  _370
REMARK  148  A    between atoms: _370  and  _371
REMARK  149  A    between atoms: _371  and  _372
REMARK  150  A    between atoms: _375  and  _377
REMARK  151  A    between atoms: _377  and  _378
REMARK  152  A    between atoms: _377  and  _380
REMARK  153  A    between atoms: _380  and  _381
REMARK  154  A    between atoms: _384  and  _386
REMARK  155  A    between atoms: _386  and  _387
REMARK  156  A    between atoms: _386  and  _389
REMARK  157  A    between atoms: _389  and  _390
REMARK  158  A    between atoms: _390  and  _391
REMARK  159  A    between atoms: _391  and  _392
REMARK  160  A    between atoms: _401  and  _403
REMARK  161  A    between atoms: _403  and  _404
REMARK  162  A    between atoms: _403  and  _406
REMARK  163  A    between atoms: _406  and  _407
REMARK  164  A    between atoms: _410  and  _412
REMARK  165  A    between atoms: _412  and  _413
REMARK  166  A    between atoms: _412  and  _415
REMARK  167  A    between atoms: _415  and  _416
REMARK  168  A    between atoms: _419  and  _421
REMARK  169  A    between atoms: _421  and  _422
REMARK  170  A    between atoms: _426  and  _427
REMARK  171  A    between atoms: _432  and  _434
REMARK  172  A    between atoms: _434  and  _435
REMARK  173  A    between atoms: _434  and  _437
REMARK  174  A    between atoms: _437  and  _438
REMARK  175  A    between atoms: _443  and  _445
REMARK  176  A    between atoms: _445  and  _446
REMARK  177  A    between atoms: _445  and  _448
REMARK  178  A    between atoms: _448  and  _449
REMARK  179  A    between atoms: _456  and  _457
REMARK  180  A    between atoms: _462  and  _464
REMARK  181  A    between atoms: _464  and  _465
REMARK  182  A    between atoms: _464  and  _467
REMARK  183  A    between atoms: _467  and  _468
REMARK  184  A    between atoms: _471  and  _473
REMARK  185  A    between atoms: _473  and  _474
REMARK  186  A    between atoms: _473  and  _476
REMARK  187  A    between atoms: _476  and  _477
REMARK  188  A    between atoms: _480  and  _482
REMARK  189  A    between atoms: _482  and  _483
REMARK  190  A    between atoms: _482  and  _485
REMARK  191  A    between atoms: _485  and  _486
REMARK  192  A    between atoms: _486  and  _487
REMARK  193  A    between atoms: _489  and  _491
REMARK  194  A    between atoms: _491  and  _492
REMARK  195  A    between atoms: _491  and  _494
REMARK  196  A    between atoms: _494  and  _495
REMARK  197  A    between atoms: _495  and  _496
REMARK  198  A    between atoms: _501  and  _503
REMARK  199  A    between atoms: _503  and  _504
REMARK  200  A    between atoms: _503  and  _506
REMARK  201  A    between atoms: _506  and  _507
REMARK  202  A    between atoms: _507  and  _508
REMARK  203  A    between atoms: _511  and  _513
REMARK  204  A    between atoms: _513  and  _514
REMARK  205  A    between atoms: _513  and  _516
REMARK  206  A    between atoms: _516  and  _517
REMARK  207  A    between atoms: _520  and  _522
REMARK  208  A    between atoms: _522  and  _523
REMARK  209  A    between atoms: _522  and  _525
REMARK  210  A    between atoms: _525  and  _526
REMARK  211  A    between atoms: _529  and  _531
REMARK  212  A    between atoms: _531  and  _532
REMARK  213  A    between atoms: _531  and  _534
REMARK  214  A    between atoms: _534  and  _535
REMARK  215  A    between atoms: _543  and  _544
REMARK  216  A    between atoms: _543  and  _546
REMARK  217  A    between atoms: _546  and  _547
REMARK  218  A    between atoms: _547  and  _548
REMARK  219  A    between atoms: _551  and  _553
REMARK  220  A    between atoms: _553  and  _554
REMARK  221  A    between atoms: _553  and  _556
REMARK  222  A    between atoms: _556  and  _557
REMARK  223  A    between atoms: _562  and  _564
REMARK  224  A    between atoms: _564  and  _565
REMARK  225  A    between atoms: _564  and  _567
REMARK  226  A    between atoms: _567  and  _568
REMARK  227  A    between atoms: _568  and  _569
REMARK  228  A    between atoms: _569  and  _570
REMARK  229  A    between atoms: _579  and  _581
REMARK  230  A    between atoms: _581  and  _582
REMARK  231  A    between atoms: _581  and  _584
REMARK  232  A    between atoms: _584  and  _585
REMARK  233  A    between atoms: _590  and  _591
REMARK  234  A    between atoms: _590  and  _593
REMARK  235  A    between atoms: _593  and  _594
REMARK  236  A    between atoms: _597  and  _599
REMARK  237  A    between atoms: _599  and  _600
REMARK  238  A    between atoms: _599  and  _602
REMARK  239  A    between atoms: _602  and  _603
REMARK  240  A    between atoms: _603  and  _604
REMARK  241  A    between atoms: _604  and  _605
REMARK  242  A    between atoms: _614  and  _616
REMARK  243  A    between atoms: _616  and  _617
REMARK                            x       y       z     vdW  Elec       q    Type
REMARK                         _______ _______ _______ _____ _____    ______ ____
ROOT
ATOM      1  O   HOH     1      75.055   8.153 123.352  0.00  0.00    +0.000 OA
ENDROOT
TORSDOF 0
REMARK  Name = ../refined-set-2016/3upk/3upk_pocket.pdb
REMARK  243 active torsions:
REMARK  status: ('A' for Active; 'I' for Inactive)
REMARK    1  A    between atoms: _1  and  _3
REMARK    2  A    between atoms: _3  and  _4
REMARK    3  A    between atoms: _3  and  _6
REMARK    4  A    between atoms: _6  and  _7
REMARK    5  A    between atoms: _7  and  _8
REMARK    6  A    between atoms: _8  and  _9
REMARK    7  A    between atoms: _9  and  _10
REMARK    8  A    between atoms: _16  and  _17
REMARK    9  A    between atoms: _16  and  _19
REMARK   10  A    between atoms: _19  and  _20
REMARK   11  A    between atoms: _25  and  _27
REMARK   12  A    between atoms: _27  and  _28
REMARK   13  A    between atoms: _31  and  _33
REMARK   14  A    between atoms: _33  and  _34
REMARK   15  A    between atoms: _33  and  _36
REMARK   16  A    between atoms: _36  and  _37
REMARK   17  A    between atoms: _41  and  _42
REMARK   18  A    between atoms: _47  and  _49
REMARK   19  A    between atoms: _49  and  _50
REMARK   20  A    between atoms: _49  and  _52
REMARK   21  A    between atoms: _52  and  _53
REMARK   22  A    between atoms: _59  and  _61
REMARK   23  A    between atoms: _61  and  _62
REMARK   24  A    between atoms: _61  and  _64
REMARK   25  A    between atoms: _64  and  _65
REMARK   26  A    between atoms: _68  and  _70
REMARK   27  A    between atoms: _70  and  _71
REMARK   28  A    between atoms: _70  and  _73
REMARK   29  A    between atoms: _73  and  _74
REMARK   30  A    between atoms: _74  and  _75
REMARK   31  A    between atoms: _77  and  _79
REMARK   32  A    between atoms: _79  and  _80
REMARK   33  A    between atoms: _79  and  _82
REMARK   34  A    between atoms: _82  and  _83
REMARK   35  A    between atoms: _83  and  _84
REMARK   36  A    between atoms: _84  and  _85
REMARK   37  A    between atoms: _94  and  _96
REMARK   38  A    between atoms: _96  and  _97
REMARK   39  A    between atoms: _100  and  _102
REMARK   40  A    between atoms: _102  and  _103
REMARK   41  A    between atoms: _102  and  _105
REMARK   42  A    between atoms: _105  and  _106
REMARK   43  A    between atoms: _108  and  _110
REMARK   44  A    between atoms: _110  and  _111
REMARK   45  A    between atoms: _110  and  _113
REMARK   46  A    between atoms: _113  and  _114
REMARK   47  A    between atoms: _117  and  _119
REMARK   48  A    between atoms: _119  and  _120
REMARK   49  A    between atoms: _119  and  _122
REMARK   50  A    between atoms: _122  and  _123
REMARK   51  A    between atoms: _133  and  _135
REMARK   52  A    between atoms: _135  and  _136
REMARK   53  A    between atoms: _135  and  _138
REMARK   54  A    between atoms: _138  and  _139
REMARK   55  A    between atoms: _142  and  _144
REMARK   56  A    between atoms: _144  and  _145
REMARK   57  A    between atoms: _147  and  _149
REMARK   58  A    between atoms: _149  and  _150
REMARK   59  A    between atoms: _153  and  _155
REMARK   60  A    between atoms: _155  and  _156
REMARK   61  A    between atoms: _155  and  _158
REMARK   62  A    between atoms: _158  and  _159
REMARK   63  A    between atoms: _159  and  _160
REMARK   64  A    between atoms: _160  and  _161
REMARK   65  A    between atoms: _171  and  _172
REMARK   66  A    between atoms: _177  and  _179
REMARK   67  A    between atoms: _179  and  _180
REMARK   68  A    between atoms: _179  and  _182
REMARK   69  A    between atoms: _185  and  _187
REMARK   70  A    between atoms: _187  and  _188
REMARK   71  A    between atoms: _187  and  _190
REMARK   72  A    between atoms: _190  and  _191
REMARK   73  A    between atoms: _194  and  _196
REMARK   74  A    between atoms: _196  and  _197
REMARK   75  A    between atoms: _196  and  _199
REMARK   76  A    between atoms: _199  and  _200
REMARK   77  A    between atoms: _203  and  _205
REMARK   78  A    between atoms: _205  and  _206
REMARK   79  A    between atoms: _205  and  _208
REMARK   80  A    between atoms: _208  and  _209
REMARK   81  A    between atoms: _214  and  _216
REMARK   82  A    between atoms: _216  and  _217
REMARK   83  A    between atoms: _216  and  _219
REMARK   84  A    between atoms: _219  and  _220
REMARK   85  A    between atoms: _223  and  _225
REMARK   86  A    between atoms: _225  and  _226
REMARK   87  A    between atoms: _225  and  _228
REMARK   88  A    between atoms: _228  and  _229
REMARK   89  A    between atoms: _235  and  _237
REMARK   90  A    between atoms: _237  and  _238
REMARK   91  A    between atoms: _240  and  _242
REMARK   92  A    between atoms: _242  and  _243
REMARK   93  A    between atoms: _242  and  _245
REMARK   94  A    between atoms: _245  and  _246
REMARK   95  A    between atoms: _246  and  _247
REMARK   96  A    between atoms: _249  and  _251
REMARK   97  A    between atoms: _251  and  _252
REMARK   98  A    between atoms: _251  and  _254
REMARK   99  A    between atoms: _254  and  _255
REMARK  100  A    between atoms: _258  and  _260
REMARK  101  A    between atoms: _260  and  _261
REMARK  102  A    between atoms: _260  and  _263
REMARK  103  A    between atoms: _263  and  _264
REMARK  104  A    between atoms: _264  and  _265
REMARK  105  A    between atoms: _265  and  _266
REMARK  106  A    between atoms: _266  and  _267
REMARK  107  A    between atoms: _271  and  _273
REMARK  108  A    between atoms: _273  and  _274
REMARK  109  A    between atoms: _273  and  _276
REMARK  110  A    between atoms: _279  and  _281
REMARK  111  A    between atoms: _281  and  _282
REMARK  112  A    between atoms: _281  and  _284
REMARK  113  A    between atoms: _284  and  _285
REMARK  114  A    between atoms: _287  and  _289
REMARK  115  A    between atoms: _289  and  _290
REMARK  116  A    between atoms: _289  and  _292
REMARK  117  A    between atoms: _295  and  _297
REMARK  118  A    between atoms: _297  and  _298
REMARK  119  A    between atoms: _300  and  _302
REMARK  120  A    between atoms: _302  and  _303
REMARK  121  A    between atoms: _306  and  _308
REMARK  122  A    between atoms: _308  and  _309
REMARK  123  A    between atoms: _308  and  _311
REMARK  124  A    between atoms: _311  and  _312
REMARK  125  A    between atoms: _315  and  _317
REMARK  126  A    between atoms: _317  and  _318
REMARK  127  A    between atoms: _317  and  _320
REMARK  128  A    between atoms: _323  and  _325
REMARK  129  A    between atoms: _325  and  _326
REMARK  130  A    between atoms: _325  and  _328
REMARK  131  A    between atoms: _328  and  _329
REMARK  132  A    between atoms: _332  and  _334
REMARK  133  A    between atoms: _334  and  _335
REMARK  134  A    between atoms: _338  and  _340
REMARK  135  A    between atoms: _340  and  _341
REMARK  136  A    between atoms: _340  and  _343
REMARK  137  A    between atoms: _343  and  _344
REMARK  138  A    between atoms: _344  and  _345
REMARK  139  A    between atoms: _345  and  _346
REMARK  140  A    between atoms: _355  and  _357
REMARK  141  A    between atoms: _357  and  _358
REMARK  142  A    between atoms: _357  and  _360
REMARK  143  A    between atoms: _360  and  _361
REMARK  144  A    between atoms: _361  and  _362
REMARK  145  A    between atoms: _365  and  _367
REMARK  146  A    between atoms: _367  and  _368
REMARK  147  A    between atoms: _367  and  _370
REMARK  148  A    between atoms: _370  and  _371
REMARK  149  A    between atoms: _371  and  _372
REMARK  150  A    between atoms: _375  and  _377
REMARK  151  A    between atoms: _377  and  _378
REMARK  152  A    between atoms: _377  and  _380
REMARK  153  A    between atoms: _380  and  _381
REMARK  154  A    between atoms: _384  and  _386
REMARK  155  A    between atoms: _386  and  _387
REMARK  156  A    between atoms: _386  and  _389
REMARK  157  A    between atoms: _389  and  _390
REMARK  158  A    between atoms: _390  and  _391
REMARK  159  A    between atoms: _391  and  _392
REMARK  160  A    between atoms: _401  and  _403
REMARK  161  A    between atoms: _403  and  _404
REMARK  162  A    between atoms: _403  and  _406
REMARK  163  A    between atoms: _406  and  _407
REMARK  164  A    between atoms: _410  and  _412
REMARK  165  A    between atoms: _412  and  _413
REMARK  166  A    between atoms: _412  and  _415
REMARK  167  A    between atoms: _415  and  _416
REMARK  168  A    between atoms: _419  and  _421
REMARK  169  A    between atoms: _421  and  _422
REMARK  170  A    between atoms: _426  and  _427
REMARK  171  A    between atoms: _432  and  _434
REMARK  172  A    between atoms: _434  and  _435
REMARK  173  A    between atoms: _434  and  _437
REMARK  174  A    between atoms: _437  and  _438
REMARK  175  A    between atoms: _443  and  _445
REMARK  176  A    between atoms: _445  and  _446
REMARK  177  A    between atoms: _445  and  _448
REMARK  178  A    between atoms: _448  and  _449
REMARK  179  A    between atoms: _456  and  _457
REMARK  180  A    between atoms: _462  and  _464
REMARK  181  A    between atoms: _464  and  _465
REMARK  182  A    between atoms: _464  and  _467
REMARK  183  A    between atoms: _467  and  _468
REMARK  184  A    between atoms: _471  and  _473
REMARK  185  A    between atoms: _473  and  _474
REMARK  186  A    between atoms: _473  and  _476
REMARK  187  A    between atoms: _476  and  _477
REMARK  188  A    between atoms: _480  and  _482
REMARK  189  A    between atoms: _482  and  _483
REMARK  190  A    between atoms: _482  and  _485
REMARK  191  A    between atoms: _485  and  _486
REMARK  192  A    between atoms: _486  and  _487
REMARK  193  A    between atoms: _489  and  _491
REMARK  194  A    between atoms: _491  and  _492
REMARK  195  A    between atoms: _491  and  _494
REMARK  196  A    between atoms: _494  and  _495
REMARK  197  A    between atoms: _495  and  _496
REMARK  198  A    between atoms: _501  and  _503
REMARK  199  A    between atoms: _503  and  _504
REMARK  200  A    between atoms: _503  and  _506
REMARK  201  A    between atoms: _506  and  _507
REMARK  202  A    between atoms: _507  and  _508
REMARK  203  A    between atoms: _511  and  _513
REMARK  204  A    between atoms: _513  and  _514
REMARK  205  A    between atoms: _513  and  _516
REMARK  206  A    between atoms: _516  and  _517
REMARK  207  A    between atoms: _520  and  _522
REMARK  208  A    between atoms: _522  and  _523
REMARK  209  A    between atoms: _522  and  _525
REMARK  210  A    between atoms: _525  and  _526
REMARK  211  A    between atoms: _529  and  _531
REMARK  212  A    between atoms: _531  and  _532
REMARK  213  A    between atoms: _531  and  _534
REMARK  214  A    between atoms: _534  and  _535
REMARK  215  A    between atoms: _543  and  _544
REMARK  216  A    between atoms: _543  and  _546
REMARK  217  A    between atoms: _546  and  _547
REMARK  218  A    between atoms: _547  and  _548
REMARK  219  A    between atoms: _551  and  _553
REMARK  220  A    between atoms: _553  and  _554
REMARK  221  A    between atoms: _553  and  _556
REMARK  222  A    between atoms: _556  and  _557
REMARK  223  A    between atoms: _562  and  _564
REMARK  224  A    between atoms: _564  and  _565
REMARK  225  A    between atoms: _564  and  _567
REMARK  226  A    between atoms: _567  and  _568
REMARK  227  A    between atoms: _568  and  _569
REMARK  228  A    between atoms: _569  and  _570
REMARK  229  A    between atoms: _579  and  _581
REMARK  230  A    between atoms: _581  and  _582
REMARK  231  A    between atoms: _581  and  _584
REMARK  232  A    between atoms: _584  and  _585
REMARK  233  A    between atoms: _590  and  _591
REMARK  234  A    between atoms: _590  and  _593
REMARK  235  A    between atoms: _593  and  _594
REMARK  236  A    between atoms: _597  and  _599
REMARK  237  A    between atoms: _599  and  _600
REMARK  238  A    between atoms: _599  and  _602
REMARK  239  A    between atoms: _602  and  _603
REMARK  240  A    between atoms: _603  and  _604
REMARK  241  A    between atoms: _604  and  _605
REMARK  242  A    between atoms: _614  and  _616
REMARK  243  A    between atoms: _616  and  _617
REMARK                            x       y       z     vdW  Elec       q    Type
REMARK                         _______ _______ _______ _____ _____    ______ ____
ROOT
ATOM      1  O   HOH     1      83.947   1.941 132.426  0.00  0.00    +0.000 OA
ENDROOT
TORSDOF 0
REMARK  Name = ../refined-set-2016/3upk/3upk_pocket.pdb
REMARK  243 active torsions:
REMARK  status: ('A' for Active; 'I' for Inactive)
REMARK    1  A    between atoms: _1  and  _3
REMARK    2  A    between atoms: _3  and  _4
REMARK    3  A    between atoms: _3  and  _6
REMARK    4  A    between atoms: _6  and  _7
REMARK    5  A    between atoms: _7  and  _8
REMARK    6  A    between atoms: _8  and  _9
REMARK    7  A    between atoms: _9  and  _10
REMARK    8  A    between atoms: _16  and  _17
REMARK    9  A    between atoms: _16  and  _19
REMARK   10  A    between atoms: _19  and  _20
REMARK   11  A    between atoms: _25  and  _27
REMARK   12  A    between atoms: _27  and  _28
REMARK   13  A    between atoms: _31  and  _33
REMARK   14  A    between atoms: _33  and  _34
REMARK   15  A    between atoms: _33  and  _36
REMARK   16  A    between atoms: _36  and  _37
REMARK   17  A    between atoms: _41  and  _42
REMARK   18  A    between atoms: _47  and  _49
REMARK   19  A    between atoms: _49  and  _50
REMARK   20  A    between atoms: _49  and  _52
REMARK   21  A    between atoms: _52  and  _53
REMARK   22  A    between atoms: _59  and  _61
REMARK   23  A    between atoms: _61  and  _62
REMARK   24  A    between atoms: _61  and  _64
REMARK   25  A    between atoms: _64  and  _65
REMARK   26  A    between atoms: _68  and  _70
REMARK   27  A    between atoms: _70  and  _71
REMARK   28  A    between atoms: _70  and  _73
REMARK   29  A    between atoms: _73  and  _74
REMARK   30  A    between atoms: _74  and  _75
REMARK   31  A    between atoms: _77  and  _79
REMARK   32  A    between atoms: _79  and  _80
REMARK   33  A    between atoms: _79  and  _82
REMARK   34  A    between atoms: _82  and  _83
REMARK   35  A    between atoms: _83  and  _84
REMARK   36  A    between atoms: _84  and  _85
REMARK   37  A    between atoms: _94  and  _96
REMARK   38  A    between atoms: _96  and  _97
REMARK   39  A    between atoms: _100  and  _102
REMARK   40  A    between atoms: _102  and  _103
REMARK   41  A    between atoms: _102  and  _105
REMARK   42  A    between atoms: _105  and  _106
REMARK   43  A    between atoms: _108  and  _110
REMARK   44  A    between atoms: _110  and  _111
REMARK   45  A    between atoms: _110  and  _113
REMARK   46  A    between atoms: _113  and  _114
REMARK   47  A    between atoms: _117  and  _119
REMARK   48  A    between atoms: _119  and  _120
REMARK   49  A    between atoms: _119  and  _122
REMARK   50  A    between atoms: _122  and  _123
REMARK   51  A    between atoms: _133  and  _135
REMARK   52  A    between atoms: _135  and  _136
REMARK   53  A    between atoms: _135  and  _138
REMARK   54  A    between atoms: _138  and  _139
REMARK   55  A    between atoms: _142  and  _144
REMARK   56  A    between atoms: _144  and  _145
REMARK   57  A    between atoms: _147  and  _149
REMARK   58  A    between atoms: _149  and  _150
REMARK   59  A    between atoms: _153  and  _155
REMARK   60  A    between atoms: _155  and  _156
REMARK   61  A    between atoms: _155  and  _158
REMARK   62  A    between atoms: _158  and  _159
REMARK   63  A    between atoms: _159  and  _160
REMARK   64  A    between atoms: _160  and  _161
REMARK   65  A    between atoms: _171  and  _172
REMARK   66  A    between atoms: _177  and  _179
REMARK   67  A    between atoms: _179  and  _180
REMARK   68  A    between atoms: _179  and  _182
REMARK   69  A    between atoms: _185  and  _187
REMARK   70  A    between atoms: _187  and  _188
REMARK   71  A    between atoms: _187  and  _190
REMARK   72  A    between atoms: _190  and  _191
REMARK   73  A    between atoms: _194  and  _196
REMARK   74  A    between atoms: _196  and  _197
REMARK   75  A    between atoms: _196  and  _199
REMARK   76  A    between atoms: _199  and  _200
REMARK   77  A    between atoms: _203  and  _205
REMARK   78  A    between atoms: _205  and  _206
REMARK   79  A    between atoms: _205  and  _208
REMARK   80  A    between atoms: _208  and  _209
REMARK   81  A    between atoms: _214  and  _216
REMARK   82  A    between atoms: _216  and  _217
REMARK   83  A    between atoms: _216  and  _219
REMARK   84  A    between atoms: _219  and  _220
REMARK   85  A    between atoms: _223  and  _225
REMARK   86  A    between atoms: _225  and  _226
REMARK   87  A    between atoms: _225  and  _228
REMARK   88  A    between atoms: _228  and  _229
REMARK   89  A    between atoms: _235  and  _237
REMARK   90  A    between atoms: _237  and  _238
REMARK   91  A    between atoms: _240  and  _242
REMARK   92  A    between atoms: _242  and  _243
REMARK   93  A    between atoms: _242  and  _245
REMARK   94  A    between atoms: _245  and  _246
REMARK   95  A    between atoms: _246  and  _247
REMARK   96  A    between atoms: _249  and  _251
REMARK   97  A    between atoms: _251  and  _252
REMARK   98  A    between atoms: _251  and  _254
REMARK   99  A    between atoms: _254  and  _255
REMARK  100  A    between atoms: _258  and  _260
REMARK  101  A    between atoms: _260  and  _261
REMARK  102  A    between atoms: _260  and  _263
REMARK  103  A    between atoms: _263  and  _264
REMARK  104  A    between atoms: _264  and  _265
REMARK  105  A    between atoms: _265  and  _266
REMARK  106  A    between atoms: _266  and  _267
REMARK  107  A    between atoms: _271  and  _273
REMARK  108  A    between atoms: _273  and  _274
REMARK  109  A    between atoms: _273  and  _276
REMARK  110  A    between atoms: _279  and  _281
REMARK  111  A    between atoms: _281  and  _282
REMARK  112  A    between atoms: _281  and  _284
REMARK  113  A    between atoms: _284  and  _285
REMARK  114  A    between atoms: _287  and  _289
REMARK  115  A    between atoms: _289  and  _290
REMARK  116  A    between atoms: _289  and  _292
REMARK  117  A    between atoms: _295  and  _297
REMARK  118  A    between atoms: _297  and  _298
REMARK  119  A    between atoms: _300  and  _302
REMARK  120  A    between atoms: _302  and  _303
REMARK  121  A    between atoms: _306  and  _308
REMARK  122  A    between atoms: _308  and  _309
REMARK  123  A    between atoms: _308  and  _311
REMARK  124  A    between atoms: _311  and  _312
REMARK  125  A    between atoms: _315  and  _317
REMARK  126  A    between atoms: _317  and  _318
REMARK  127  A    between atoms: _317  and  _320
REMARK  128  A    between atoms: _323  and  _325
REMARK  129  A    between atoms: _325  and  _326
REMARK  130  A    between atoms: _325  and  _328
REMARK  131  A    between atoms: _328  and  _329
REMARK  132  A    between atoms: _332  and  _334
REMARK  133  A    between atoms: _334  and  _335
REMARK  134  A    between atoms: _338  and  _340
REMARK  135  A    between atoms: _340  and  _341
REMARK  136  A    between atoms: _340  and  _343
REMARK  137  A    between atoms: _343  and  _344
REMARK  138  A    between atoms: _344  and  _345
REMARK  139  A    between atoms: _345  and  _346
REMARK  140  A    between atoms: _355  and  _357
REMARK  141  A    between atoms: _357  and  _358
REMARK  142  A    between atoms: _357  and  _360
REMARK  143  A    between atoms: _360  and  _361
REMARK  144  A    between atoms: _361  and  _362
REMARK  145  A    between atoms: _365  and  _367
REMARK  146  A    between atoms: _367  and  _368
REMARK  147  A    between atoms: _367  and  _370
REMARK  148  A    between atoms: _370  and  _371
REMARK  149  A    between atoms: _371  and  _372
REMARK  150  A    between atoms: _375  and  _377
REMARK  151  A    between atoms: _377  and  _378
REMARK  152  A    between atoms: _377  and  _380
REMARK  153  A    between atoms: _380  and  _381
REMARK  154  A    between atoms: _384  and  _386
REMARK  155  A    between atoms: _386  and  _387
REMARK  156  A    between atoms: _386  and  _389
REMARK  157  A    between atoms: _389  and  _390
REMARK  158  A    between atoms: _390  and  _391
REMARK  159  A    between atoms: _391  and  _392
REMARK  160  A    between atoms: _401  and  _403
REMARK  161  A    between atoms: _403  and  _404
REMARK  162  A    between atoms: _403  and  _406
REMARK  163  A    between atoms: _406  and  _407
REMARK  164  A    between atoms: _410  and  _412
REMARK  165  A    between atoms: _412  and  _413
REMARK  166  A    between atoms: _412  and  _415
REMARK  167  A    between atoms: _415  and  _416
REMARK  168  A    between atoms: _419  and  _421
REMARK  169  A    between atoms: _421  and  _422
REMARK  170  A    between atoms: _426  and  _427
REMARK  171  A    between atoms: _432  and  _434
REMARK  172  A    between atoms: _434  and  _435
REMARK  173  A    between atoms: _434  and  _437
REMARK  174  A    between atoms: _437  and  _438
REMARK  175  A    between atoms: _443  and  _445
REMARK  176  A    between atoms: _445  and  _446
REMARK  177  A    between atoms: _445  and  _448
REMARK  178  A    between atoms: _448  and  _449
REMARK  179  A    between atoms: _456  and  _457
REMARK  180  A    between atoms: _462  and  _464
REMARK  181  A    between atoms: _464  and  _465
REMARK  182  A    between atoms: _464  and  _467
REMARK  183  A    between atoms: _467  and  _468
REMARK  184  A    between atoms: _471  and  _473
REMARK  185  A    between atoms: _473  and  _474
REMARK  186  A    between atoms: _473  and  _476
REMARK  187  A    between atoms: _476  and  _477
REMARK  188  A    between atoms: _480  and  _482
REMARK  189  A    between atoms: _482  and  _483
REMARK  190  A    between atoms: _482  and  _485
REMARK  191  A    between atoms: _485  and  _486
REMARK  192  A    between atoms: _486  and  _487
REMARK  193  A    between atoms: _489  and  _491
REMARK  194  A    between atoms: _491  and  _492
REMARK  195  A    between atoms: _491  and  _494
REMARK  196  A    between atoms: _494  and  _495
REMARK  197  A    between atoms: _495  and  _496
REMARK  198  A    between atoms: _501  and  _503
REMARK  199  A    between atoms: _503  and  _504
REMARK  200  A    between atoms: _503  and  _506
REMARK  201  A    between atoms: _506  and  _507
REMARK  202  A    between atoms: _507  and  _508
REMARK  203  A    between atoms: _511  and  _513
REMARK  204  A    between atoms: _513  and  _514
REMARK  205  A    between atoms: _513  and  _516
REMARK  206  A    between atoms: _516  and  _517
REMARK  207  A    between atoms: _520  and  _522
REMARK  208  A    between atoms: _522  and  _523
REMARK  209  A    between atoms: _522  and  _525
REMARK  210  A    between atoms: _525  and  _526
REMARK  211  A    between atoms: _529  and  _531
REMARK  212  A    between atoms: _531  and  _532
REMARK  213  A    between atoms: _531  and  _534
REMARK  214  A    between atoms: _534  and  _535
REMARK  215  A    between atoms: _543  and  _544
REMARK  216  A    between atoms: _543  and  _546
REMARK  217  A    between atoms: _546  and  _547
REMARK  218  A    between atoms: _547  and  _548
REMARK  219  A    between atoms: _551  and  _553
REMARK  220  A    between atoms: _553  and  _554
REMARK  221  A    between atoms: _553  and  _556
REMARK  222  A    between atoms: _556  and  _557
REMARK  223  A    between atoms: _562  and  _564
REMARK  224  A    between atoms: _564  and  _565
REMARK  225  A    between atoms: _564  and  _567
REMARK  226  A    between atoms: _567  and  _568
REMARK  227  A    between atoms: _568  and  _569
REMARK  228  A    between atoms: _569  and  _570
REMARK  229  A    between atoms: _579  and  _581
REMARK  230  A    between atoms: _581  and  _582
REMARK  231  A    between atoms: _581  and  _584
REMARK  232  A    between atoms: _584  and  _585
REMARK  233  A    between atoms: _590  and  _591
REMARK  234  A    between atoms: _590  and  _593
REMARK  235  A    between atoms: _593  and  _594
REMARK  236  A    between atoms: _597  and  _599
REMARK  237  A    between atoms: _599  and  _600
REMARK  238  A    between atoms: _599  and  _602
REMARK  239  A    between atoms: _602  and  _603
REMARK  240  A    between atoms: _603  and  _604
REMARK  241  A    between atoms: _604  and  _605
REMARK  242  A    between atoms: _614  and  _616
REMARK  243  A    between atoms: _616  and  _617
REMARK                            x       y       z     vdW  Elec       q    Type
REMARK                         _______ _______ _______ _____ _____    ______ ____
ROOT
ATOM      1  O   HOH     1      90.285  -5.376 122.481  0.00  0.00    +0.000 OA
ENDROOT
TORSDOF 0
REMARK  Name = ../refined-set-2016/3upk/3upk_pocket.pdb
REMARK  243 active torsions:
REMARK  status: ('A' for Active; 'I' for Inactive)
REMARK    1  A    between atoms: _1  and  _3
REMARK    2  A    between atoms: _3  and  _4
REMARK    3  A    between atoms: _3  and  _6
REMARK    4  A    between atoms: _6  and  _7
REMARK    5  A    between atoms: _7  and  _8
REMARK    6  A    between atoms: _8  and  _9
REMARK    7  A    between atoms: _9  and  _10
REMARK    8  A    between atoms: _16  and  _17
REMARK    9  A    between atoms: _16  and  _19
REMARK   10  A    between atoms: _19  and  _20
REMARK   11  A    between atoms: _25  and  _27
REMARK   12  A    between atoms: _27  and  _28
REMARK   13  A    between atoms: _31  and  _33
REMARK   14  A    between atoms: _33  and  _34
REMARK   15  A    between atoms: _33  and  _36
REMARK   16  A    between atoms: _36  and  _37
REMARK   17  A    between atoms: _41  and  _42
REMARK   18  A    between atoms: _47  and  _49
REMARK   19  A    between atoms: _49  and  _50
REMARK   20  A    between atoms: _49  and  _52
REMARK   21  A    between atoms: _52  and  _53
REMARK   22  A    between atoms: _59  and  _61
REMARK   23  A    between atoms: _61  and  _62
REMARK   24  A    between atoms: _61  and  _64
REMARK   25  A    between atoms: _64  and  _65
REMARK   26  A    between atoms: _68  and  _70
REMARK   27  A    between atoms: _70  and  _71
REMARK   28  A    between atoms: _70  and  _73
REMARK   29  A    between atoms: _73  and  _74
REMARK   30  A    between atoms: _74  and  _75
REMARK   31  A    between atoms: _77  and  _79
REMARK   32  A    between atoms: _79  and  _80
REMARK   33  A    between atoms: _79  and  _82
REMARK   34  A    between atoms: _82  and  _83
REMARK   35  A    between atoms: _83  and  _84
REMARK   36  A    between atoms: _84  and  _85
REMARK   37  A    between atoms: _94  and  _96
REMARK   38  A    between atoms: _96  and  _97
REMARK   39  A    between atoms: _100  and  _102
REMARK   40  A    between atoms: _102  and  _103
REMARK   41  A    between atoms: _102  and  _105
REMARK   42  A    between atoms: _105  and  _106
REMARK   43  A    between atoms: _108  and  _110
REMARK   44  A    between atoms: _110  and  _111
REMARK   45  A    between atoms: _110  and  _113
REMARK   46  A    between atoms: _113  and  _114
REMARK   47  A    between atoms: _117  and  _119
REMARK   48  A    between atoms: _119  and  _120
REMARK   49  A    between atoms: _119  and  _122
REMARK   50  A    between atoms: _122  and  _123
REMARK   51  A    between atoms: _133  and  _135
REMARK   52  A    between atoms: _135  and  _136
REMARK   53  A    between atoms: _135  and  _138
REMARK   54  A    between atoms: _138  and  _139
REMARK   55  A    between atoms: _142  and  _144
REMARK   56  A    between atoms: _144  and  _145
REMARK   57  A    between atoms: _147  and  _149
REMARK   58  A    between atoms: _149  and  _150
REMARK   59  A    between atoms: _153  and  _155
REMARK   60  A    between atoms: _155  and  _156
REMARK   61  A    between atoms: _155  and  _158
REMARK   62  A    between atoms: _158  and  _159
REMARK   63  A    between atoms: _159  and  _160
REMARK   64  A    between atoms: _160  and  _161
REMARK   65  A    between atoms: _171  and  _172
REMARK   66  A    between atoms: _177  and  _179
REMARK   67  A    between atoms: _179  and  _180
REMARK   68  A    between atoms: _179  and  _182
REMARK   69  A    between atoms: _185  and  _187
REMARK   70  A    between atoms: _187  and  _188
REMARK   71  A    between atoms: _187  and  _190
REMARK   72  A    between atoms: _190  and  _191
REMARK   73  A    between atoms: _194  and  _196
REMARK   74  A    between atoms: _196  and  _197
REMARK   75  A    between atoms: _196  and  _199
REMARK   76  A    between atoms: _199  and  _200
REMARK   77  A    between atoms: _203  and  _205
REMARK   78  A    between atoms: _205  and  _206
REMARK   79  A    between atoms: _205  and  _208
REMARK   80  A    between atoms: _208  and  _209
REMARK   81  A    between atoms: _214  and  _216
REMARK   82  A    between atoms: _216  and  _217
REMARK   83  A    between atoms: _216  and  _219
REMARK   84  A    between atoms: _219  and  _220
REMARK   85  A    between atoms: _223  and  _225
REMARK   86  A    between atoms: _225  and  _226
REMARK   87  A    between atoms: _225  and  _228
REMARK   88  A    between atoms: _228  and  _229
REMARK   89  A    between atoms: _235  and  _237
REMARK   90  A    between atoms: _237  and  _238
REMARK   91  A    between atoms: _240  and  _242
REMARK   92  A    between atoms: _242  and  _243
REMARK   93  A    between atoms: _242  and  _245
REMARK   94  A    between atoms: _245  and  _246
REMARK   95  A    between atoms: _246  and  _247
REMARK   96  A    between atoms: _249  and  _251
REMARK   97  A    between atoms: _251  and  _252
REMARK   98  A    between atoms: _251  and  _254
REMARK   99  A    between atoms: _254  and  _255
REMARK  100  A    between atoms: _258  and  _260
REMARK  101  A    between atoms: _260  and  _261
REMARK  102  A    between atoms: _260  and  _263
REMARK  103  A    between atoms: _263  and  _264
REMARK  104  A    between atoms: _264  and  _265
REMARK  105  A    between atoms: _265  and  _266
REMARK  106  A    between atoms: _266  and  _267
REMARK  107  A    between atoms: _271  and  _273
REMARK  108  A    between atoms: _273  and  _274
REMARK  109  A    between atoms: _273  and  _276
REMARK  110  A    between atoms: _279  and  _281
REMARK  111  A    between atoms: _281  and  _282
REMARK  112  A    between atoms: _281  and  _284
REMARK  113  A    between atoms: _284  and  _285
REMARK  114  A    between atoms: _287  and  _289
REMARK  115  A    between atoms: _289  and  _290
REMARK  116  A    between atoms: _289  and  _292
REMARK  117  A    between atoms: _295  and  _297
REMARK  118  A    between atoms: _297  and  _298
REMARK  119  A    between atoms: _300  and  _302
REMARK  120  A    between atoms: _302  and  _303
REMARK  121  A    between atoms: _306  and  _308
REMARK  122  A    between atoms: _308  and  _309
REMARK  123  A    between atoms: _308  and  _311
REMARK  124  A    between atoms: _311  and  _312
REMARK  125  A    between atoms: _315  and  _317
REMARK  126  A    between atoms: _317  and  _318
REMARK  127  A    between atoms: _317  and  _320
REMARK  128  A    between atoms: _323  and  _325
REMARK  129  A    between atoms: _325  and  _326
REMARK  130  A    between atoms: _325  and  _328
REMARK  131  A    between atoms: _328  and  _329
REMARK  132  A    between atoms: _332  and  _334
REMARK  133  A    between atoms: _334  and  _335
REMARK  134  A    between atoms: _338  and  _340
REMARK  135  A    between atoms: _340  and  _341
REMARK  136  A    between atoms: _340  and  _343
REMARK  137  A    between atoms: _343  and  _344
REMARK  138  A    between atoms: _344  and  _345
REMARK  139  A    between atoms: _345  and  _346
REMARK  140  A    between atoms: _355  and  _357
REMARK  141  A    between atoms: _357  and  _358
REMARK  142  A    between atoms: _357  and  _360
REMARK  143  A    between atoms: _360  and  _361
REMARK  144  A    between atoms: _361  and  _362
REMARK  145  A    between atoms: _365  and  _367
REMARK  146  A    between atoms: _367  and  _368
REMARK  147  A    between atoms: _367  and  _370
REMARK  148  A    between atoms: _370  and  _371
REMARK  149  A    between atoms: _371  and  _372
REMARK  150  A    between atoms: _375  and  _377
REMARK  151  A    between atoms: _377  and  _378
REMARK  152  A    between atoms: _377  and  _380
REMARK  153  A    between atoms: _380  and  _381
REMARK  154  A    between atoms: _384  and  _386
REMARK  155  A    between atoms: _386  and  _387
REMARK  156  A    between atoms: _386  and  _389
REMARK  157  A    between atoms: _389  and  _390
REMARK  158  A    between atoms: _390  and  _391
REMARK  159  A    between atoms: _391  and  _392
REMARK  160  A    between atoms: _401  and  _403
REMARK  161  A    between atoms: _403  and  _404
REMARK  162  A    between atoms: _403  and  _406
REMARK  163  A    between atoms: _406  and  _407
REMARK  164  A    between atoms: _410  and  _412
REMARK  165  A    between atoms: _412  and  _413
REMARK  166  A    between atoms: _412  and  _415
REMARK  167  A    between atoms: _415  and  _416
REMARK  168  A    between atoms: _419  and  _421
REMARK  169  A    between atoms: _421  and  _422
REMARK  170  A    between atoms: _426  and  _427
REMARK  171  A    between atoms: _432  and  _434
REMARK  172  A    between atoms: _434  and  _435
REMARK  173  A    between atoms: _434  and  _437
REMARK  174  A    between atoms: _437  and  _438
REMARK  175  A    between atoms: _443  and  _445
REMARK  176  A    between atoms: _445  and  _446
REMARK  177  A    between atoms: _445  and  _448
REMARK  178  A    between atoms: _448  and  _449
REMARK  179  A    between atoms: _456  and  _457
REMARK  180  A    between atoms: _462  and  _464
REMARK  181  A    between atoms: _464  and  _465
REMARK  182  A    between atoms: _464  and  _467
REMARK  183  A    between atoms: _467  and  _468
REMARK  184  A    between atoms: _471  and  _473
REMARK  185  A    between atoms: _473  and  _474
REMARK  186  A    between atoms: _473  and  _476
REMARK  187  A    between atoms: _476  and  _477
REMARK  188  A    between atoms: _480  and  _482
REMARK  189  A    between atoms: _482  and  _483
REMARK  190  A    between atoms: _482  and  _485
REMARK  191  A    between atoms: _485  and  _486
REMARK  192  A    between atoms: _486  and  _487
REMARK  193  A    between atoms: _489  and  _491
REMARK  194  A    between atoms: _491  and  _492
REMARK  195  A    between atoms: _491  and  _494
REMARK  196  A    between atoms: _494  and  _495
REMARK  197  A    between atoms: _495  and  _496
REMARK  198  A    between atoms: _501  and  _503
REMARK  199  A    between atoms: _503  and  _504
REMARK  200  A    between atoms: _503  and  _506
REMARK  201  A    between atoms: _506  and  _507
REMARK  202  A    between atoms: _507  and  _508
REMARK  203  A    between atoms: _511  and  _513
REMARK  204  A    between atoms: _513  and  _514
REMARK  205  A    between atoms: _513  and  _516
REMARK  206  A    between atoms: _516  and  _517
REMARK  207  A    between atoms: _520  and  _522
REMARK  208  A    between atoms: _522  and  _523
REMARK  209  A    between atoms: _522  and  _525
REMARK  210  A    between atoms: _525  and  _526
REMARK  211  A    between atoms: _529  and  _531
REMARK  212  A    between atoms: _531  and  _532
REMARK  213  A    between atoms: _531  and  _534
REMARK  214  A    between atoms: _534  and  _535
REMARK  215  A    between atoms: _543  and  _544
REMARK  216  A    between atoms: _543  and  _546
REMARK  217  A    between atoms: _546  and  _547
REMARK  218  A    between atoms: _547  and  _548
REMARK  219  A    between atoms: _551  and  _553
REMARK  220  A    between atoms: _553  and  _554
REMARK  221  A    between atoms: _553  and  _556
REMARK  222  A    between atoms: _556  and  _557
REMARK  223  A    between atoms: _562  and  _564
REMARK  224  A    between atoms: _564  and  _565
REMARK  225  A    between atoms: _564  and  _567
REMARK  226  A    between atoms: _567  and  _568
REMARK  227  A    between atoms: _568  and  _569
REMARK  228  A    between atoms: _569  and  _570
REMARK  229  A    between atoms: _579  and  _581
REMARK  230  A    between atoms: _581  and  _582
REMARK  231  A    between atoms: _581  and  _584
REMARK  232  A    between atoms: _584  and  _585
REMARK  233  A    between atoms: _590  and  _591
REMARK  234  A    between atoms: _590  and  _593
REMARK  235  A    between atoms: _593  and  _594
REMARK  236  A    between atoms: _597  and  _599
REMARK  237  A    between atoms: _599  and  _600
REMARK  238  A    between atoms: _599  and  _602
REMARK  239  A    between atoms: _602  and  _603
REMARK  240  A    between atoms: _603  and  _604
REMARK  241  A    between atoms: _604  and  _605
REMARK  242  A    between atoms: _614  and  _616
REMARK  243  A    between atoms: _616  and  _617
REMARK                            x       y       z     vdW  Elec       q    Type
REMARK                         _______ _______ _______ _____ _____    ______ ____
ROOT
ATOM      1  O   HOH     1      81.178   2.371 116.314  0.00  0.00    +0.000 OA
ENDROOT
TORSDOF 0
REMARK  Name = ../refined-set-2016/3upk/3upk_pocket.pdb
REMARK  243 active torsions:
REMARK  status: ('A' for Active; 'I' for Inactive)
REMARK    1  A    between atoms: _1  and  _3
REMARK    2  A    between atoms: _3  and  _4
REMARK    3  A    between atoms: _3  and  _6
REMARK    4  A    between atoms: _6  and  _7
REMARK    5  A    between atoms: _7  and  _8
REMARK    6  A    between atoms: _8  and  _9
REMARK    7  A    between atoms: _9  and  _10
REMARK    8  A    between atoms: _16  and  _17
REMARK    9  A    between atoms: _16  and  _19
REMARK   10  A    between atoms: _19  and  _20
REMARK   11  A    between atoms: _25  and  _27
REMARK   12  A    between atoms: _27  and  _28
REMARK   13  A    between atoms: _31  and  _33
REMARK   14  A    between atoms: _33  and  _34
REMARK   15  A    between atoms: _33  and  _36
REMARK   16  A    between atoms: _36  and  _37
REMARK   17  A    between atoms: _41  and  _42
REMARK   18  A    between atoms: _47  and  _49
REMARK   19  A    between atoms: _49  and  _50
REMARK   20  A    between atoms: _49  and  _52
REMARK   21  A    between atoms: _52  and  _53
REMARK   22  A    between atoms: _59  and  _61
REMARK   23  A    between atoms: _61  and  _62
REMARK   24  A    between atoms: _61  and  _64
REMARK   25  A    between atoms: _64  and  _65
REMARK   26  A    between atoms: _68  and  _70
REMARK   27  A    between atoms: _70  and  _71
REMARK   28  A    between atoms: _70  and  _73
REMARK   29  A    between atoms: _73  and  _74
REMARK   30  A    between atoms: _74  and  _75
REMARK   31  A    between atoms: _77  and  _79
REMARK   32  A    between atoms: _79  and  _80
REMARK   33  A    between atoms: _79  and  _82
REMARK   34  A    between atoms: _82  and  _83
REMARK   35  A    between atoms: _83  and  _84
REMARK   36  A    between atoms: _84  and  _85
REMARK   37  A    between atoms: _94  and  _96
REMARK   38  A    between atoms: _96  and  _97
REMARK   39  A    between atoms: _100  and  _102
REMARK   40  A    between atoms: _102  and  _103
REMARK   41  A    between atoms: _102  and  _105
REMARK   42  A    between atoms: _105  and  _106
REMARK   43  A    between atoms: _108  and  _110
REMARK   44  A    between atoms: _110  and  _111
REMARK   45  A    between atoms: _110  and  _113
REMARK   46  A    between atoms: _113  and  _114
REMARK   47  A    between atoms: _117  and  _119
REMARK   48  A    between atoms: _119  and  _120
REMARK   49  A    between atoms: _119  and  _122
REMARK   50  A    between atoms: _122  and  _123
REMARK   51  A    between atoms: _133  and  _135
REMARK   52  A    between atoms: _135  and  _136
REMARK   53  A    between atoms: _135  and  _138
REMARK   54  A    between atoms: _138  and  _139
REMARK   55  A    between atoms: _142  and  _144
REMARK   56  A    between atoms: _144  and  _145
REMARK   57  A    between atoms: _147  and  _149
REMARK   58  A    between atoms: _149  and  _150
REMARK   59  A    between atoms: _153  and  _155
REMARK   60  A    between atoms: _155  and  _156
REMARK   61  A    between atoms: _155  and  _158
REMARK   62  A    between atoms: _158  and  _159
REMARK   63  A    between atoms: _159  and  _160
REMARK   64  A    between atoms: _160  and  _161
REMARK   65  A    between atoms: _171  and  _172
REMARK   66  A    between atoms: _177  and  _179
REMARK   67  A    between atoms: _179  and  _180
REMARK   68  A    between atoms: _179  and  _182
REMARK   69  A    between atoms: _185  and  _187
REMARK   70  A    between atoms: _187  and  _188
REMARK   71  A    between atoms: _187  and  _190
REMARK   72  A    between atoms: _190  and  _191
REMARK   73  A    between atoms: _194  and  _196
REMARK   74  A    between atoms: _196  and  _197
REMARK   75  A    between atoms: _196  and  _199
REMARK   76  A    between atoms: _199  and  _200
REMARK   77  A    between atoms: _203  and  _205
REMARK   78  A    between atoms: _205  and  _206
REMARK   79  A    between atoms: _205  and  _208
REMARK   80  A    between atoms: _208  and  _209
REMARK   81  A    between atoms: _214  and  _216
REMARK   82  A    between atoms: _216  and  _217
REMARK   83  A    between atoms: _216  and  _219
REMARK   84  A    between atoms: _219  and  _220
REMARK   85  A    between atoms: _223  and  _225
REMARK   86  A    between atoms: _225  and  _226
REMARK   87  A    between atoms: _225  and  _228
REMARK   88  A    between atoms: _228  and  _229
REMARK   89  A    between atoms: _235  and  _237
REMARK   90  A    between atoms: _237  and  _238
REMARK   91  A    between atoms: _240  and  _242
REMARK   92  A    between atoms: _242  and  _243
REMARK   93  A    between atoms: _242  and  _245
REMARK   94  A    between atoms: _245  and  _246
REMARK   95  A    between atoms: _246  and  _247
REMARK   96  A    between atoms: _249  and  _251
REMARK   97  A    between atoms: _251  and  _252
REMARK   98  A    between atoms: _251  and  _254
REMARK   99  A    between atoms: _254  and  _255
REMARK  100  A    between atoms: _258  and  _260
REMARK  101  A    between atoms: _260  and  _261
REMARK  102  A    between atoms: _260  and  _263
REMARK  103  A    between atoms: _263  and  _264
REMARK  104  A    between atoms: _264  and  _265
REMARK  105  A    between atoms: _265  and  _266
REMARK  106  A    between atoms: _266  and  _267
REMARK  107  A    between atoms: _271  and  _273
REMARK  108  A    between atoms: _273  and  _274
REMARK  109  A    between atoms: _273  and  _276
REMARK  110  A    between atoms: _279  and  _281
REMARK  111  A    between atoms: _281  and  _282
REMARK  112  A    between atoms: _281  and  _284
REMARK  113  A    between atoms: _284  and  _285
REMARK  114  A    between atoms: _287  and  _289
REMARK  115  A    between atoms: _289  and  _290
REMARK  116  A    between atoms: _289  and  _292
REMARK  117  A    between atoms: _295  and  _297
REMARK  118  A    between atoms: _297  and  _298
REMARK  119  A    between atoms: _300  and  _302
REMARK  120  A    between atoms: _302  and  _303
REMARK  121  A    between atoms: _306  and  _308
REMARK  122  A    between atoms: _308  and  _309
REMARK  123  A    between atoms: _308  and  _311
REMARK  124  A    between atoms: _311  and  _312
REMARK  125  A    between atoms: _315  and  _317
REMARK  126  A    between atoms: _317  and  _318
REMARK  127  A    between atoms: _317  and  _320
REMARK  128  A    between atoms: _323  and  _325
REMARK  129  A    between atoms: _325  and  _326
REMARK  130  A    between atoms: _325  and  _328
REMARK  131  A    between atoms: _328  and  _329
REMARK  132  A    between atoms: _332  and  _334
REMARK  133  A    between atoms: _334  and  _335
REMARK  134  A    between atoms: _338  and  _340
REMARK  135  A    between atoms: _340  and  _341
REMARK  136  A    between atoms: _340  and  _343
REMARK  137  A    between atoms: _343  and  _344
REMARK  138  A    between atoms: _344  and  _345
REMARK  139  A    between atoms: _345  and  _346
REMARK  140  A    between atoms: _355  and  _357
REMARK  141  A    between atoms: _357  and  _358
REMARK  142  A    between atoms: _357  and  _360
REMARK  143  A    between atoms: _360  and  _361
REMARK  144  A    between atoms: _361  and  _362
REMARK  145  A    between atoms: _365  and  _367
REMARK  146  A    between atoms: _367  and  _368
REMARK  147  A    between atoms: _367  and  _370
REMARK  148  A    between atoms: _370  and  _371
REMARK  149  A    between atoms: _371  and  _372
REMARK  150  A    between atoms: _375  and  _377
REMARK  151  A    between atoms: _377  and  _378
REMARK  152  A    between atoms: _377  and  _380
REMARK  153  A    between atoms: _380  and  _381
REMARK  154  A    between atoms: _384  and  _386
REMARK  155  A    between atoms: _386  and  _387
REMARK  156  A    between atoms: _386  and  _389
REMARK  157  A    between atoms: _389  and  _390
REMARK  158  A    between atoms: _390  and  _391
REMARK  159  A    between atoms: _391  and  _392
REMARK  160  A    between atoms: _401  and  _403
REMARK  161  A    between atoms: _403  and  _404
REMARK  162  A    between atoms: _403  and  _406
REMARK  163  A    between atoms: _406  and  _407
REMARK  164  A    between atoms: _410  and  _412
REMARK  165  A    between atoms: _412  and  _413
REMARK  166  A    between atoms: _412  and  _415
REMARK  167  A    between atoms: _415  and  _416
REMARK  168  A    between atoms: _419  and  _421
REMARK  169  A    between atoms: _421  and  _422
REMARK  170  A    between atoms: _426  and  _427
REMARK  171  A    between atoms: _432  and  _434
REMARK  172  A    between atoms: _434  and  _435
REMARK  173  A    between atoms: _434  and  _437
REMARK  174  A    between atoms: _437  and  _438
REMARK  175  A    between atoms: _443  and  _445
REMARK  176  A    between atoms: _445  and  _446
REMARK  177  A    between atoms: _445  and  _448
REMARK  178  A    between atoms: _448  and  _449
REMARK  179  A    between atoms: _456  and  _457
REMARK  180  A    between atoms: _462  and  _464
REMARK  181  A    between atoms: _464  and  _465
REMARK  182  A    between atoms: _464  and  _467
REMARK  183  A    between atoms: _467  and  _468
REMARK  184  A    between atoms: _471  and  _473
REMARK  185  A    between atoms: _473  and  _474
REMARK  186  A    between atoms: _473  and  _476
REMARK  187  A    between atoms: _476  and  _477
REMARK  188  A    between atoms: _480  and  _482
REMARK  189  A    between atoms: _482  and  _483
REMARK  190  A    between atoms: _482  and  _485
REMARK  191  A    between atoms: _485  and  _486
REMARK  192  A    between atoms: _486  and  _487
REMARK  193  A    between atoms: _489  and  _491
REMARK  194  A    between atoms: _491  and  _492
REMARK  195  A    between atoms: _491  and  _494
REMARK  196  A    between atoms: _494  and  _495
REMARK  197  A    between atoms: _495  and  _496
REMARK  198  A    between atoms: _501  and  _503
REMARK  199  A    between atoms: _503  and  _504
REMARK  200  A    between atoms: _503  and  _506
REMARK  201  A    between atoms: _506  and  _507
REMARK  202  A    between atoms: _507  and  _508
REMARK  203  A    between atoms: _511  and  _513
REMARK  204  A    between atoms: _513  and  _514
REMARK  205  A    between atoms: _513  and  _516
REMARK  206  A    between atoms: _516  and  _517
REMARK  207  A    between atoms: _520  and  _522
REMARK  208  A    between atoms: _522  and  _523
REMARK  209  A    between atoms: _522  and  _525
REMARK  210  A    between atoms: _525  and  _526
REMARK  211  A    between atoms: _529  and  _531
REMARK  212  A    between atoms: _531  and  _532
REMARK  213  A    between atoms: _531  and  _534
REMARK  214  A    between atoms: _534  and  _535
REMARK  215  A    between atoms: _543  and  _544
REMARK  216  A    between atoms: _543  and  _546
REMARK  217  A    between atoms: _546  and  _547
REMARK  218  A    between atoms: _547  and  _548
REMARK  219  A    between atoms: _551  and  _553
REMARK  220  A    between atoms: _553  and  _554
REMARK  221  A    between atoms: _553  and  _556
REMARK  222  A    between atoms: _556  and  _557
REMARK  223  A    between atoms: _562  and  _564
REMARK  224  A    between atoms: _564  and  _565
REMARK  225  A    between atoms: _564  and  _567
REMARK  226  A    between atoms: _567  and  _568
REMARK  227  A    between atoms: _568  and  _569
REMARK  228  A    between atoms: _569  and  _570
REMARK  229  A    between atoms: _579  and  _581
REMARK  230  A    between atoms: _581  and  _582
REMARK  231  A    between atoms: _581  and  _584
REMARK  232  A    between atoms: _584  and  _585
REMARK  233  A    between atoms: _590  and  _591
REMARK  234  A    between atoms: _590  and  _593
REMARK  235  A    between atoms: _593  and  _594
REMARK  236  A    between atoms: _597  and  _599
REMARK  237  A    between atoms: _599  and  _600
REMARK  238  A    between atoms: _599  and  _602
REMARK  239  A    between atoms: _602  and  _603
REMARK  240  A    between atoms: _603  and  _604
REMARK  241  A    between atoms: _604  and  _605
REMARK  242  A    between atoms: _614  and  _616
REMARK  243  A    between atoms: _616  and  _617
REMARK                            x       y       z     vdW  Elec       q    Type
REMARK                         _______ _______ _______ _____ _____    ______ ____
ROOT
ATOM      1  O   HOH     1      84.465   6.907 125.150  0.00  0.00    +0.000 OA
ENDROOT
TORSDOF 0
REMARK  Name = ../refined-set-2016/3upk/3upk_pocket.pdb
REMARK  243 active torsions:
REMARK  status: ('A' for Active; 'I' for Inactive)
REMARK    1  A    between atoms: _1  and  _3
REMARK    2  A    between atoms: _3  and  _4
REMARK    3  A    between atoms: _3  and  _6
REMARK    4  A    between atoms: _6  and  _7
REMARK    5  A    between atoms: _7  and  _8
REMARK    6  A    between atoms: _8  and  _9
REMARK    7  A    between atoms: _9  and  _10
REMARK    8  A    between atoms: _16  and  _17
REMARK    9  A    between atoms: _16  and  _19
REMARK   10  A    between atoms: _19  and  _20
REMARK   11  A    between atoms: _25  and  _27
REMARK   12  A    between atoms: _27  and  _28
REMARK   13  A    between atoms: _31  and  _33
REMARK   14  A    between atoms: _33  and  _34
REMARK   15  A    between atoms: _33  and  _36
REMARK   16  A    between atoms: _36  and  _37
REMARK   17  A    between atoms: _41  and  _42
REMARK   18  A    between atoms: _47  and  _49
REMARK   19  A    between atoms: _49  and  _50
REMARK   20  A    between atoms: _49  and  _52
REMARK   21  A    between atoms: _52  and  _53
REMARK   22  A    between atoms: _59  and  _61
REMARK   23  A    between atoms: _61  and  _62
REMARK   24  A    between atoms: _61  and  _64
REMARK   25  A    between atoms: _64  and  _65
REMARK   26  A    between atoms: _68  and  _70
REMARK   27  A    between atoms: _70  and  _71
REMARK   28  A    between atoms: _70  and  _73
REMARK   29  A    between atoms: _73  and  _74
REMARK   30  A    between atoms: _74  and  _75
REMARK   31  A    between atoms: _77  and  _79
REMARK   32  A    between atoms: _79  and  _80
REMARK   33  A    between atoms: _79  and  _82
REMARK   34  A    between atoms: _82  and  _83
REMARK   35  A    between atoms: _83  and  _84
REMARK   36  A    between atoms: _84  and  _85
REMARK   37  A    between atoms: _94  and  _96
REMARK   38  A    between atoms: _96  and  _97
REMARK   39  A    between atoms: _100  and  _102
REMARK   40  A    between atoms: _102  and  _103
REMARK   41  A    between atoms: _102  and  _105
REMARK   42  A    between atoms: _105  and  _106
REMARK   43  A    between atoms: _108  and  _110
REMARK   44  A    between atoms: _110  and  _111
REMARK   45  A    between atoms: _110  and  _113
REMARK   46  A    between atoms: _113  and  _114
REMARK   47  A    between atoms: _117  and  _119
REMARK   48  A    between atoms: _119  and  _120
REMARK   49  A    between atoms: _119  and  _122
REMARK   50  A    between atoms: _122  and  _123
REMARK   51  A    between atoms: _133  and  _135
REMARK   52  A    between atoms: _135  and  _136
REMARK   53  A    between atoms: _135  and  _138
REMARK   54  A    between atoms: _138  and  _139
REMARK   55  A    between atoms: _142  and  _144
REMARK   56  A    between atoms: _144  and  _145
REMARK   57  A    between atoms: _147  and  _149
REMARK   58  A    between atoms: _149  and  _150
REMARK   59  A    between atoms: _153  and  _155
REMARK   60  A    between atoms: _155  and  _156
REMARK   61  A    between atoms: _155  and  _158
REMARK   62  A    between atoms: _158  and  _159
REMARK   63  A    between atoms: _159  and  _160
REMARK   64  A    between atoms: _160  and  _161
REMARK   65  A    between atoms: _171  and  _172
REMARK   66  A    between atoms: _177  and  _179
REMARK   67  A    between atoms: _179  and  _180
REMARK   68  A    between atoms: _179  and  _182
REMARK   69  A    between atoms: _185  and  _187
REMARK   70  A    between atoms: _187  and  _188
REMARK   71  A    between atoms: _187  and  _190
REMARK   72  A    between atoms: _190  and  _191
REMARK   73  A    between atoms: _194  and  _196
REMARK   74  A    between atoms: _196  and  _197
REMARK   75  A    between atoms: _196  and  _199
REMARK   76  A    between atoms: _199  and  _200
REMARK   77  A    between atoms: _203  and  _205
REMARK   78  A    between atoms: _205  and  _206
REMARK   79  A    between atoms: _205  and  _208
REMARK   80  A    between atoms: _208  and  _209
REMARK   81  A    between atoms: _214  and  _216
REMARK   82  A    between atoms: _216  and  _217
REMARK   83  A    between atoms: _216  and  _219
REMARK   84  A    between atoms: _219  and  _220
REMARK   85  A    between atoms: _223  and  _225
REMARK   86  A    between atoms: _225  and  _226
REMARK   87  A    between atoms: _225  and  _228
REMARK   88  A    between atoms: _228  and  _229
REMARK   89  A    between atoms: _235  and  _237
REMARK   90  A    between atoms: _237  and  _238
REMARK   91  A    between atoms: _240  and  _242
REMARK   92  A    between atoms: _242  and  _243
REMARK   93  A    between atoms: _242  and  _245
REMARK   94  A    between atoms: _245  and  _246
REMARK   95  A    between atoms: _246  and  _247
REMARK   96  A    between atoms: _249  and  _251
REMARK   97  A    between atoms: _251  and  _252
REMARK   98  A    between atoms: _251  and  _254
REMARK   99  A    between atoms: _254  and  _255
REMARK  100  A    between atoms: _258  and  _260
REMARK  101  A    between atoms: _260  and  _261
REMARK  102  A    between atoms: _260  and  _263
REMARK  103  A    between atoms: _263  and  _264
REMARK  104  A    between atoms: _264  and  _265
REMARK  105  A    between atoms: _265  and  _266
REMARK  106  A    between atoms: _266  and  _267
REMARK  107  A    between atoms: _271  and  _273
REMARK  108  A    between atoms: _273  and  _274
REMARK  109  A    between atoms: _273  and  _276
REMARK  110  A    between atoms: _279  and  _281
REMARK  111  A    between atoms: _281  and  _282
REMARK  112  A    between atoms: _281  and  _284
REMARK  113  A    between atoms: _284  and  _285
REMARK  114  A    between atoms: _287  and  _289
REMARK  115  A    between atoms: _289  and  _290
REMARK  116  A    between atoms: _289  and  _292
REMARK  117  A    between atoms: _295  and  _297
REMARK  118  A    between atoms: _297  and  _298
REMARK  119  A    between atoms: _300  and  _302
REMARK  120  A    between atoms: _302  and  _303
REMARK  121  A    between atoms: _306  and  _308
REMARK  122  A    between atoms: _308  and  _309
REMARK  123  A    between atoms: _308  and  _311
REMARK  124  A    between atoms: _311  and  _312
REMARK  125  A    between atoms: _315  and  _317
REMARK  126  A    between atoms: _317  and  _318
REMARK  127  A    between atoms: _317  and  _320
REMARK  128  A    between atoms: _323  and  _325
REMARK  129  A    between atoms: _325  and  _326
REMARK  130  A    between atoms: _325  and  _328
REMARK  131  A    between atoms: _328  and  _329
REMARK  132  A    between atoms: _332  and  _334
REMARK  133  A    between atoms: _334  and  _335
REMARK  134  A    between atoms: _338  and  _340
REMARK  135  A    between atoms: _340  and  _341
REMARK  136  A    between atoms: _340  and  _343
REMARK  137  A    between atoms: _343  and  _344
REMARK  138  A    between atoms: _344  and  _345
REMARK  139  A    between atoms: _345  and  _346
REMARK  140  A    between atoms: _355  and  _357
REMARK  141  A    between atoms: _357  and  _358
REMARK  142  A    between atoms: _357  and  _360
REMARK  143  A    between atoms: _360  and  _361
REMARK  144  A    between atoms: _361  and  _362
REMARK  145  A    between atoms: _365  and  _367
REMARK  146  A    between atoms: _367  and  _368
REMARK  147  A    between atoms: _367  and  _370
REMARK  148  A    between atoms: _370  and  _371
REMARK  149  A    between atoms: _371  and  _372
REMARK  150  A    between atoms: _375  and  _377
REMARK  151  A    between atoms: _377  and  _378
REMARK  152  A    between atoms: _377  and  _380
REMARK  153  A    between atoms: _380  and  _381
REMARK  154  A    between atoms: _384  and  _386
REMARK  155  A    between atoms: _386  and  _387
REMARK  156  A    between atoms: _386  and  _389
REMARK  157  A    between atoms: _389  and  _390
REMARK  158  A    between atoms: _390  and  _391
REMARK  159  A    between atoms: _391  and  _392
REMARK  160  A    between atoms: _401  and  _403
REMARK  161  A    between atoms: _403  and  _404
REMARK  162  A    between atoms: _403  and  _406
REMARK  163  A    between atoms: _406  and  _407
REMARK  164  A    between atoms: _410  and  _412
REMARK  165  A    between atoms: _412  and  _413
REMARK  166  A    between atoms: _412  and  _415
REMARK  167  A    between atoms: _415  and  _416
REMARK  168  A    between atoms: _419  and  _421
REMARK  169  A    between atoms: _421  and  _422
REMARK  170  A    between atoms: _426  and  _427
REMARK  171  A    between atoms: _432  and  _434
REMARK  172  A    between atoms: _434  and  _435
REMARK  173  A    between atoms: _434  and  _437
REMARK  174  A    between atoms: _437  and  _438
REMARK  175  A    between atoms: _443  and  _445
REMARK  176  A    between atoms: _445  and  _446
REMARK  177  A    between atoms: _445  and  _448
REMARK  178  A    between atoms: _448  and  _449
REMARK  179  A    between atoms: _456  and  _457
REMARK  180  A    between atoms: _462  and  _464
REMARK  181  A    between atoms: _464  and  _465
REMARK  182  A    between atoms: _464  and  _467
REMARK  183  A    between atoms: _467  and  _468
REMARK  184  A    between atoms: _471  and  _473
REMARK  185  A    between atoms: _473  and  _474
REMARK  186  A    between atoms: _473  and  _476
REMARK  187  A    between atoms: _476  and  _477
REMARK  188  A    between atoms: _480  and  _482
REMARK  189  A    between atoms: _482  and  _483
REMARK  190  A    between atoms: _482  and  _485
REMARK  191  A    between atoms: _485  and  _486
REMARK  192  A    between atoms: _486  and  _487
REMARK  193  A    between atoms: _489  and  _491
REMARK  194  A    between atoms: _491  and  _492
REMARK  195  A    between atoms: _491  and  _494
REMARK  196  A    between atoms: _494  and  _495
REMARK  197  A    between atoms: _495  and  _496
REMARK  198  A    between atoms: _501  and  _503
REMARK  199  A    between atoms: _503  and  _504
REMARK  200  A    between atoms: _503  and  _506
REMARK  201  A    between atoms: _506  and  _507
REMARK  202  A    between atoms: _507  and  _508
REMARK  203  A    between atoms: _511  and  _513
REMARK  204  A    between atoms: _513  and  _514
REMARK  205  A    between atoms: _513  and  _516
REMARK  206  A    between atoms: _516  and  _517
REMARK  207  A    between atoms: _520  and  _522
REMARK  208  A    between atoms: _522  and  _523
REMARK  209  A    between atoms: _522  and  _525
REMARK  210  A    between atoms: _525  and  _526
REMARK  211  A    between atoms: _529  and  _531
REMARK  212  A    between atoms: _531  and  _532
REMARK  213  A    between atoms: _531  and  _534
REMARK  214  A    between atoms: _534  and  _535
REMARK  215  A    between atoms: _543  and  _544
REMARK  216  A    between atoms: _543  and  _546
REMARK  217  A    between atoms: _546  and  _547
REMARK  218  A    between atoms: _547  and  _548
REMARK  219  A    between atoms: _551  and  _553
REMARK  220  A    between atoms: _553  and  _554
REMARK  221  A    between atoms: _553  and  _556
REMARK  222  A    between atoms: _556  and  _557
REMARK  223  A    between atoms: _562  and  _564
REMARK  224  A    between atoms: _564  and  _565
REMARK  225  A    between atoms: _564  and  _567
REMARK  226  A    between atoms: _567  and  _568
REMARK  227  A    between atoms: _568  and  _569
REMARK  228  A    between atoms: _569  and  _570
REMARK  229  A    between atoms: _579  and  _581
REMARK  230  A    between atoms: _581  and  _582
REMARK  231  A    between atoms: _581  and  _584
REMARK  232  A    between atoms: _584  and  _585
REMARK  233  A    between atoms: _590  and  _591
REMARK  234  A    between atoms: _590  and  _593
REMARK  235  A    between atoms: _593  and  _594
REMARK  236  A    between atoms: _597  and  _599
REMARK  237  A    between atoms: _599  and  _600
REMARK  238  A    between atoms: _599  and  _602
REMARK  239  A    between atoms: _602  and  _603
REMARK  240  A    between atoms: _603  and  _604
REMARK  241  A    between atoms: _604  and  _605
REMARK  242  A    between atoms: _614  and  _616
REMARK  243  A    between atoms: _616  and  _617
REMARK                            x       y       z     vdW  Elec       q    Type
REMARK                         _______ _______ _______ _____ _____    ______ ____
ROOT
ATOM      1  O   HOH     1      83.738   2.875 117.415  0.00  0.00    +0.000 OA
ENDROOT
TORSDOF 0
REMARK  Name = ../refined-set-2016/3upk/3upk_pocket.pdb
REMARK  243 active torsions:
REMARK  status: ('A' for Active; 'I' for Inactive)
REMARK    1  A    between atoms: _1  and  _3
REMARK    2  A    between atoms: _3  and  _4
REMARK    3  A    between atoms: _3  and  _6
REMARK    4  A    between atoms: _6  and  _7
REMARK    5  A    between atoms: _7  and  _8
REMARK    6  A    between atoms: _8  and  _9
REMARK    7  A    between atoms: _9  and  _10
REMARK    8  A    between atoms: _16  and  _17
REMARK    9  A    between atoms: _16  and  _19
REMARK   10  A    between atoms: _19  and  _20
REMARK   11  A    between atoms: _25  and  _27
REMARK   12  A    between atoms: _27  and  _28
REMARK   13  A    between atoms: _31  and  _33
REMARK   14  A    between atoms: _33  and  _34
REMARK   15  A    between atoms: _33  and  _36
REMARK   16  A    between atoms: _36  and  _37
REMARK   17  A    between atoms: _41  and  _42
REMARK   18  A    between atoms: _47  and  _49
REMARK   19  A    between atoms: _49  and  _50
REMARK   20  A    between atoms: _49  and  _52
REMARK   21  A    between atoms: _52  and  _53
REMARK   22  A    between atoms: _59  and  _61
REMARK   23  A    between atoms: _61  and  _62
REMARK   24  A    between atoms: _61  and  _64
REMARK   25  A    between atoms: _64  and  _65
REMARK   26  A    between atoms: _68  and  _70
REMARK   27  A    between atoms: _70  and  _71
REMARK   28  A    between atoms: _70  and  _73
REMARK   29  A    between atoms: _73  and  _74
REMARK   30  A    between atoms: _74  and  _75
REMARK   31  A    between atoms: _77  and  _79
REMARK   32  A    between atoms: _79  and  _80
REMARK   33  A    between atoms: _79  and  _82
REMARK   34  A    between atoms: _82  and  _83
REMARK   35  A    between atoms: _83  and  _84
REMARK   36  A    between atoms: _84  and  _85
REMARK   37  A    between atoms: _94  and  _96
REMARK   38  A    between atoms: _96  and  _97
REMARK   39  A    between atoms: _100  and  _102
REMARK   40  A    between atoms: _102  and  _103
REMARK   41  A    between atoms: _102  and  _105
REMARK   42  A    between atoms: _105  and  _106
REMARK   43  A    between atoms: _108  and  _110
REMARK   44  A    between atoms: _110  and  _111
REMARK   45  A    between atoms: _110  and  _113
REMARK   46  A    between atoms: _113  and  _114
REMARK   47  A    between atoms: _117  and  _119
REMARK   48  A    between atoms: _119  and  _120
REMARK   49  A    between atoms: _119  and  _122
REMARK   50  A    between atoms: _122  and  _123
REMARK   51  A    between atoms: _133  and  _135
REMARK   52  A    between atoms: _135  and  _136
REMARK   53  A    between atoms: _135  and  _138
REMARK   54  A    between atoms: _138  and  _139
REMARK   55  A    between atoms: _142  and  _144
REMARK   56  A    between atoms: _144  and  _145
REMARK   57  A    between atoms: _147  and  _149
REMARK   58  A    between atoms: _149  and  _150
REMARK   59  A    between atoms: _153  and  _155
REMARK   60  A    between atoms: _155  and  _156
REMARK   61  A    between atoms: _155  and  _158
REMARK   62  A    between atoms: _158  and  _159
REMARK   63  A    between atoms: _159  and  _160
REMARK   64  A    between atoms: _160  and  _161
REMARK   65  A    between atoms: _171  and  _172
REMARK   66  A    between atoms: _177  and  _179
REMARK   67  A    between atoms: _179  and  _180
REMARK   68  A    between atoms: _179  and  _182
REMARK   69  A    between atoms: _185  and  _187
REMARK   70  A    between atoms: _187  and  _188
REMARK   71  A    between atoms: _187  and  _190
REMARK   72  A    between atoms: _190  and  _191
REMARK   73  A    between atoms: _194  and  _196
REMARK   74  A    between atoms: _196  and  _197
REMARK   75  A    between atoms: _196  and  _199
REMARK   76  A    between atoms: _199  and  _200
REMARK   77  A    between atoms: _203  and  _205
REMARK   78  A    between atoms: _205  and  _206
REMARK   79  A    between atoms: _205  and  _208
REMARK   80  A    between atoms: _208  and  _209
REMARK   81  A    between atoms: _214  and  _216
REMARK   82  A    between atoms: _216  and  _217
REMARK   83  A    between atoms: _216  and  _219
REMARK   84  A    between atoms: _219  and  _220
REMARK   85  A    between atoms: _223  and  _225
REMARK   86  A    between atoms: _225  and  _226
REMARK   87  A    between atoms: _225  and  _228
REMARK   88  A    between atoms: _228  and  _229
REMARK   89  A    between atoms: _235  and  _237
REMARK   90  A    between atoms: _237  and  _238
REMARK   91  A    between atoms: _240  and  _242
REMARK   92  A    between atoms: _242  and  _243
REMARK   93  A    between atoms: _242  and  _245
REMARK   94  A    between atoms: _245  and  _246
REMARK   95  A    between atoms: _246  and  _247
REMARK   96  A    between atoms: _249  and  _251
REMARK   97  A    between atoms: _251  and  _252
REMARK   98  A    between atoms: _251  and  _254
REMARK   99  A    between atoms: _254  and  _255
REMARK  100  A    between atoms: _258  and  _260
REMARK  101  A    between atoms: _260  and  _261
REMARK  102  A    between atoms: _260  and  _263
REMARK  103  A    between atoms: _263  and  _264
REMARK  104  A    between atoms: _264  and  _265
REMARK  105  A    between atoms: _265  and  _266
REMARK  106  A    between atoms: _266  and  _267
REMARK  107  A    between atoms: _271  and  _273
REMARK  108  A    between atoms: _273  and  _274
REMARK  109  A    between atoms: _273  and  _276
REMARK  110  A    between atoms: _279  and  _281
REMARK  111  A    between atoms: _281  and  _282
REMARK  112  A    between atoms: _281  and  _284
REMARK  113  A    between atoms: _284  and  _285
REMARK  114  A    between atoms: _287  and  _289
REMARK  115  A    between atoms: _289  and  _290
REMARK  116  A    between atoms: _289  and  _292
REMARK  117  A    between atoms: _295  and  _297
REMARK  118  A    between atoms: _297  and  _298
REMARK  119  A    between atoms: _300  and  _302
REMARK  120  A    between atoms: _302  and  _303
REMARK  121  A    between atoms: _306  and  _308
REMARK  122  A    between atoms: _308  and  _309
REMARK  123  A    between atoms: _308  and  _311
REMARK  124  A    between atoms: _311  and  _312
REMARK  125  A    between atoms: _315  and  _317
REMARK  126  A    between atoms: _317  and  _318
REMARK  127  A    between atoms: _317  and  _320
REMARK  128  A    between atoms: _323  and  _325
REMARK  129  A    between atoms: _325  and  _326
REMARK  130  A    between atoms: _325  and  _328
REMARK  131  A    between atoms: _328  and  _329
REMARK  132  A    between atoms: _332  and  _334
REMARK  133  A    between atoms: _334  and  _335
REMARK  134  A    between atoms: _338  and  _340
REMARK  135  A    between atoms: _340  and  _341
REMARK  136  A    between atoms: _340  and  _343
REMARK  137  A    between atoms: _343  and  _344
REMARK  138  A    between atoms: _344  and  _345
REMARK  139  A    between atoms: _345  and  _346
REMARK  140  A    between atoms: _355  and  _357
REMARK  141  A    between atoms: _357  and  _358
REMARK  142  A    between atoms: _357  and  _360
REMARK  143  A    between atoms: _360  and  _361
REMARK  144  A    between atoms: _361  and  _362
REMARK  145  A    between atoms: _365  and  _367
REMARK  146  A    between atoms: _367  and  _368
REMARK  147  A    between atoms: _367  and  _370
REMARK  148  A    between atoms: _370  and  _371
REMARK  149  A    between atoms: _371  and  _372
REMARK  150  A    between atoms: _375  and  _377
REMARK  151  A    between atoms: _377  and  _378
REMARK  152  A    between atoms: _377  and  _380
REMARK  153  A    between atoms: _380  and  _381
REMARK  154  A    between atoms: _384  and  _386
REMARK  155  A    between atoms: _386  and  _387
REMARK  156  A    between atoms: _386  and  _389
REMARK  157  A    between atoms: _389  and  _390
REMARK  158  A    between atoms: _390  and  _391
REMARK  159  A    between atoms: _391  and  _392
REMARK  160  A    between atoms: _401  and  _403
REMARK  161  A    between atoms: _403  and  _404
REMARK  162  A    between atoms: _403  and  _406
REMARK  163  A    between atoms: _406  and  _407
REMARK  164  A    between atoms: _410  and  _412
REMARK  165  A    between atoms: _412  and  _413
REMARK  166  A    between atoms: _412  and  _415
REMARK  167  A    between atoms: _415  and  _416
REMARK  168  A    between atoms: _419  and  _421
REMARK  169  A    between atoms: _421  and  _422
REMARK  170  A    between atoms: _426  and  _427
REMARK  171  A    between atoms: _432  and  _434
REMARK  172  A    between atoms: _434  and  _435
REMARK  173  A    between atoms: _434  and  _437
REMARK  174  A    between atoms: _437  and  _438
REMARK  175  A    between atoms: _443  and  _445
REMARK  176  A    between atoms: _445  and  _446
REMARK  177  A    between atoms: _445  and  _448
REMARK  178  A    between atoms: _448  and  _449
REMARK  179  A    between atoms: _456  and  _457
REMARK  180  A    between atoms: _462  and  _464
REMARK  181  A    between atoms: _464  and  _465
REMARK  182  A    between atoms: _464  and  _467
REMARK  183  A    between atoms: _467  and  _468
REMARK  184  A    between atoms: _471  and  _473
REMARK  185  A    between atoms: _473  and  _474
REMARK  186  A    between atoms: _473  and  _476
REMARK  187  A    between atoms: _476  and  _477
REMARK  188  A    between atoms: _480  and  _482
REMARK  189  A    between atoms: _482  and  _483
REMARK  190  A    between atoms: _482  and  _485
REMARK  191  A    between atoms: _485  and  _486
REMARK  192  A    between atoms: _486  and  _487
REMARK  193  A    between atoms: _489  and  _491
REMARK  194  A    between atoms: _491  and  _492
REMARK  195  A    between atoms: _491  and  _494
REMARK  196  A    between atoms: _494  and  _495
REMARK  197  A    between atoms: _495  and  _496
REMARK  198  A    between atoms: _501  and  _503
REMARK  199  A    between atoms: _503  and  _504
REMARK  200  A    between atoms: _503  and  _506
REMARK  201  A    between atoms: _506  and  _507
REMARK  202  A    between atoms: _507  and  _508
REMARK  203  A    between atoms: _511  and  _513
REMARK  204  A    between atoms: _513  and  _514
REMARK  205  A    between atoms: _513  and  _516
REMARK  206  A    between atoms: _516  and  _517
REMARK  207  A    between atoms: _520  and  _522
REMARK  208  A    between atoms: _522  and  _523
REMARK  209  A    between atoms: _522  and  _525
REMARK  210  A    between atoms: _525  and  _526
REMARK  211  A    between atoms: _529  and  _531
REMARK  212  A    between atoms: _531  and  _532
REMARK  213  A    between atoms: _531  and  _534
REMARK  214  A    between atoms: _534  and  _535
REMARK  215  A    between atoms: _543  and  _544
REMARK  216  A    between atoms: _543  and  _546
REMARK  217  A    between atoms: _546  and  _547
REMARK  218  A    between atoms: _547  and  _548
REMARK  219  A    between atoms: _551  and  _553
REMARK  220  A    between atoms: _553  and  _554
REMARK  221  A    between atoms: _553  and  _556
REMARK  222  A    between atoms: _556  and  _557
REMARK  223  A    between atoms: _562  and  _564
REMARK  224  A    between atoms: _564  and  _565
REMARK  225  A    between atoms: _564  and  _567
REMARK  226  A    between atoms: _567  and  _568
REMARK  227  A    between atoms: _568  and  _569
REMARK  228  A    between atoms: _569  and  _570
REMARK  229  A    between atoms: _579  and  _581
REMARK  230  A    between atoms: _581  and  _582
REMARK  231  A    between atoms: _581  and  _584
REMARK  232  A    between atoms: _584  and  _585
REMARK  233  A    between atoms: _590  and  _591
REMARK  234  A    between atoms: _590  and  _593
REMARK  235  A    between atoms: _593  and  _594
REMARK  236  A    between atoms: _597  and  _599
REMARK  237  A    between atoms: _599  and  _600
REMARK  238  A    between atoms: _599  and  _602
REMARK  239  A    between atoms: _602  and  _603
REMARK  240  A    between atoms: _603  and  _604
REMARK  241  A    between atoms: _604  and  _605
REMARK  242  A    between atoms: _614  and  _616
REMARK  243  A    between atoms: _616  and  _617
REMARK                            x       y       z     vdW  Elec       q    Type
REMARK                         _______ _______ _______ _____ _____    ______ ____
ROOT
ATOM      1  O   HOH     1      90.754   0.838 122.883  0.00  0.00    +0.000 OA
ENDROOT
TORSDOF 0
REMARK  Name = ../refined-set-2016/3upk/3upk_pocket.pdb
REMARK  243 active torsions:
REMARK  status: ('A' for Active; 'I' for Inactive)
REMARK    1  A    between atoms: _1  and  _3
REMARK    2  A    between atoms: _3  and  _4
REMARK    3  A    between atoms: _3  and  _6
REMARK    4  A    between atoms: _6  and  _7
REMARK    5  A    between atoms: _7  and  _8
REMARK    6  A    between atoms: _8  and  _9
REMARK    7  A    between atoms: _9  and  _10
REMARK    8  A    between atoms: _16  and  _17
REMARK    9  A    between atoms: _16  and  _19
REMARK   10  A    between atoms: _19  and  _20
REMARK   11  A    between atoms: _25  and  _27
REMARK   12  A    between atoms: _27  and  _28
REMARK   13  A    between atoms: _31  and  _33
REMARK   14  A    between atoms: _33  and  _34
REMARK   15  A    between atoms: _33  and  _36
REMARK   16  A    between atoms: _36  and  _37
REMARK   17  A    between atoms: _41  and  _42
REMARK   18  A    between atoms: _47  and  _49
REMARK   19  A    between atoms: _49  and  _50
REMARK   20  A    between atoms: _49  and  _52
REMARK   21  A    between atoms: _52  and  _53
REMARK   22  A    between atoms: _59  and  _61
REMARK   23  A    between atoms: _61  and  _62
REMARK   24  A    between atoms: _61  and  _64
REMARK   25  A    between atoms: _64  and  _65
REMARK   26  A    between atoms: _68  and  _70
REMARK   27  A    between atoms: _70  and  _71
REMARK   28  A    between atoms: _70  and  _73
REMARK   29  A    between atoms: _73  and  _74
REMARK   30  A    between atoms: _74  and  _75
REMARK   31  A    between atoms: _77  and  _79
REMARK   32  A    between atoms: _79  and  _80
REMARK   33  A    between atoms: _79  and  _82
REMARK   34  A    between atoms: _82  and  _83
REMARK   35  A    between atoms: _83  and  _84
REMARK   36  A    between atoms: _84  and  _85
REMARK   37  A    between atoms: _94  and  _96
REMARK   38  A    between atoms: _96  and  _97
REMARK   39  A    between atoms: _100  and  _102
REMARK   40  A    between atoms: _102  and  _103
REMARK   41  A    between atoms: _102  and  _105
REMARK   42  A    between atoms: _105  and  _106
REMARK   43  A    between atoms: _108  and  _110
REMARK   44  A    between atoms: _110  and  _111
REMARK   45  A    between atoms: _110  and  _113
REMARK   46  A    between atoms: _113  and  _114
REMARK   47  A    between atoms: _117  and  _119
REMARK   48  A    between atoms: _119  and  _120
REMARK   49  A    between atoms: _119  and  _122
REMARK   50  A    between atoms: _122  and  _123
REMARK   51  A    between atoms: _133  and  _135
REMARK   52  A    between atoms: _135  and  _136
REMARK   53  A    between atoms: _135  and  _138
REMARK   54  A    between atoms: _138  and  _139
REMARK   55  A    between atoms: _142  and  _144
REMARK   56  A    between atoms: _144  and  _145
REMARK   57  A    between atoms: _147  and  _149
REMARK   58  A    between atoms: _149  and  _150
REMARK   59  A    between atoms: _153  and  _155
REMARK   60  A    between atoms: _155  and  _156
REMARK   61  A    between atoms: _155  and  _158
REMARK   62  A    between atoms: _158  and  _159
REMARK   63  A    between atoms: _159  and  _160
REMARK   64  A    between atoms: _160  and  _161
REMARK   65  A    between atoms: _171  and  _172
REMARK   66  A    between atoms: _177  and  _179
REMARK   67  A    between atoms: _179  and  _180
REMARK   68  A    between atoms: _179  and  _182
REMARK   69  A    between atoms: _185  and  _187
REMARK   70  A    between atoms: _187  and  _188
REMARK   71  A    between atoms: _187  and  _190
REMARK   72  A    between atoms: _190  and  _191
REMARK   73  A    between atoms: _194  and  _196
REMARK   74  A    between atoms: _196  and  _197
REMARK   75  A    between atoms: _196  and  _199
REMARK   76  A    between atoms: _199  and  _200
REMARK   77  A    between atoms: _203  and  _205
REMARK   78  A    between atoms: _205  and  _206
REMARK   79  A    between atoms: _205  and  _208
REMARK   80  A    between atoms: _208  and  _209
REMARK   81  A    between atoms: _214  and  _216
REMARK   82  A    between atoms: _216  and  _217
REMARK   83  A    between atoms: _216  and  _219
REMARK   84  A    between atoms: _219  and  _220
REMARK   85  A    between atoms: _223  and  _225
REMARK   86  A    between atoms: _225  and  _226
REMARK   87  A    between atoms: _225  and  _228
REMARK   88  A    between atoms: _228  and  _229
REMARK   89  A    between atoms: _235  and  _237
REMARK   90  A    between atoms: _237  and  _238
REMARK   91  A    between atoms: _240  and  _242
REMARK   92  A    between atoms: _242  and  _243
REMARK   93  A    between atoms: _242  and  _245
REMARK   94  A    between atoms: _245  and  _246
REMARK   95  A    between atoms: _246  and  _247
REMARK   96  A    between atoms: _249  and  _251
REMARK   97  A    between atoms: _251  and  _252
REMARK   98  A    between atoms: _251  and  _254
REMARK   99  A    between atoms: _254  and  _255
REMARK  100  A    between atoms: _258  and  _260
REMARK  101  A    between atoms: _260  and  _261
REMARK  102  A    between atoms: _260  and  _263
REMARK  103  A    between atoms: _263  and  _264
REMARK  104  A    between atoms: _264  and  _265
REMARK  105  A    between atoms: _265  and  _266
REMARK  106  A    between atoms: _266  and  _267
REMARK  107  A    between atoms: _271  and  _273
REMARK  108  A    between atoms: _273  and  _274
REMARK  109  A    between atoms: _273  and  _276
REMARK  110  A    between atoms: _279  and  _281
REMARK  111  A    between atoms: _281  and  _282
REMARK  112  A    between atoms: _281  and  _284
REMARK  113  A    between atoms: _284  and  _285
REMARK  114  A    between atoms: _287  and  _289
REMARK  115  A    between atoms: _289  and  _290
REMARK  116  A    between atoms: _289  and  _292
REMARK  117  A    between atoms: _295  and  _297
REMARK  118  A    between atoms: _297  and  _298
REMARK  119  A    between atoms: _300  and  _302
REMARK  120  A    between atoms: _302  and  _303
REMARK  121  A    between atoms: _306  and  _308
REMARK  122  A    between atoms: _308  and  _309
REMARK  123  A    between atoms: _308  and  _311
REMARK  124  A    between atoms: _311  and  _312
REMARK  125  A    between atoms: _315  and  _317
REMARK  126  A    between atoms: _317  and  _318
REMARK  127  A    between atoms: _317  and  _320
REMARK  128  A    between atoms: _323  and  _325
REMARK  129  A    between atoms: _325  and  _326
REMARK  130  A    between atoms: _325  and  _328
REMARK  131  A    between atoms: _328  and  _329
REMARK  132  A    between atoms: _332  and  _334
REMARK  133  A    between atoms: _334  and  _335
REMARK  134  A    between atoms: _338  and  _340
REMARK  135  A    between atoms: _340  and  _341
REMARK  136  A    between atoms: _340  and  _343
REMARK  137  A    between atoms: _343  and  _344
REMARK  138  A    between atoms: _344  and  _345
REMARK  139  A    between atoms: _345  and  _346
REMARK  140  A    between atoms: _355  and  _357
REMARK  141  A    between atoms: _357  and  _358
REMARK  142  A    between atoms: _357  and  _360
REMARK  143  A    between atoms: _360  and  _361
REMARK  144  A    between atoms: _361  and  _362
REMARK  145  A    between atoms: _365  and  _367
REMARK  146  A    between atoms: _367  and  _368
REMARK  147  A    between atoms: _367  and  _370
REMARK  148  A    between atoms: _370  and  _371
REMARK  149  A    between atoms: _371  and  _372
REMARK  150  A    between atoms: _375  and  _377
REMARK  151  A    between atoms: _377  and  _378
REMARK  152  A    between atoms: _377  and  _380
REMARK  153  A    between atoms: _380  and  _381
REMARK  154  A    between atoms: _384  and  _386
REMARK  155  A    between atoms: _386  and  _387
REMARK  156  A    between atoms: _386  and  _389
REMARK  157  A    between atoms: _389  and  _390
REMARK  158  A    between atoms: _390  and  _391
REMARK  159  A    between atoms: _391  and  _392
REMARK  160  A    between atoms: _401  and  _403
REMARK  161  A    between atoms: _403  and  _404
REMARK  162  A    between atoms: _403  and  _406
REMARK  163  A    between atoms: _406  and  _407
REMARK  164  A    between atoms: _410  and  _412
REMARK  165  A    between atoms: _412  and  _413
REMARK  166  A    between atoms: _412  and  _415
REMARK  167  A    between atoms: _415  and  _416
REMARK  168  A    between atoms: _419  and  _421
REMARK  169  A    between atoms: _421  and  _422
REMARK  170  A    between atoms: _426  and  _427
REMARK  171  A    between atoms: _432  and  _434
REMARK  172  A    between atoms: _434  and  _435
REMARK  173  A    between atoms: _434  and  _437
REMARK  174  A    between atoms: _437  and  _438
REMARK  175  A    between atoms: _443  and  _445
REMARK  176  A    between atoms: _445  and  _446
REMARK  177  A    between atoms: _445  and  _448
REMARK  178  A    between atoms: _448  and  _449
REMARK  179  A    between atoms: _456  and  _457
REMARK  180  A    between atoms: _462  and  _464
REMARK  181  A    between atoms: _464  and  _465
REMARK  182  A    between atoms: _464  and  _467
REMARK  183  A    between atoms: _467  and  _468
REMARK  184  A    between atoms: _471  and  _473
REMARK  185  A    between atoms: _473  and  _474
REMARK  186  A    between atoms: _473  and  _476
REMARK  187  A    between atoms: _476  and  _477
REMARK  188  A    between atoms: _480  and  _482
REMARK  189  A    between atoms: _482  and  _483
REMARK  190  A    between atoms: _482  and  _485
REMARK  191  A    between atoms: _485  and  _486
REMARK  192  A    between atoms: _486  and  _487
REMARK  193  A    between atoms: _489  and  _491
REMARK  194  A    between atoms: _491  and  _492
REMARK  195  A    between atoms: _491  and  _494
REMARK  196  A    between atoms: _494  and  _495
REMARK  197  A    between atoms: _495  and  _496
REMARK  198  A    between atoms: _501  and  _503
REMARK  199  A    between atoms: _503  and  _504
REMARK  200  A    between atoms: _503  and  _506
REMARK  201  A    between atoms: _506  and  _507
REMARK  202  A    between atoms: _507  and  _508
REMARK  203  A    between atoms: _511  and  _513
REMARK  204  A    between atoms: _513  and  _514
REMARK  205  A    between atoms: _513  and  _516
REMARK  206  A    between atoms: _516  and  _517
REMARK  207  A    between atoms: _520  and  _522
REMARK  208  A    between atoms: _522  and  _523
REMARK  209  A    between atoms: _522  and  _525
REMARK  210  A    between atoms: _525  and  _526
REMARK  211  A    between atoms: _529  and  _531
REMARK  212  A    between atoms: _531  and  _532
REMARK  213  A    between atoms: _531  and  _534
REMARK  214  A    between atoms: _534  and  _535
REMARK  215  A    between atoms: _543  and  _544
REMARK  216  A    between atoms: _543  and  _546
REMARK  217  A    between atoms: _546  and  _547
REMARK  218  A    between atoms: _547  and  _548
REMARK  219  A    between atoms: _551  and  _553
REMARK  220  A    between atoms: _553  and  _554
REMARK  221  A    between atoms: _553  and  _556
REMARK  222  A    between atoms: _556  and  _557
REMARK  223  A    between atoms: _562  and  _564
REMARK  224  A    between atoms: _564  and  _565
REMARK  225  A    between atoms: _564  and  _567
REMARK  226  A    between atoms: _567  and  _568
REMARK  227  A    between atoms: _568  and  _569
REMARK  228  A    between atoms: _569  and  _570
REMARK  229  A    between atoms: _579  and  _581
REMARK  230  A    between atoms: _581  and  _582
REMARK  231  A    between atoms: _581  and  _584
REMARK  232  A    between atoms: _584  and  _585
REMARK  233  A    between atoms: _590  and  _591
REMARK  234  A    between atoms: _590  and  _593
REMARK  235  A    between atoms: _593  and  _594
REMARK  236  A    between atoms: _597  and  _599
REMARK  237  A    between atoms: _599  and  _600
REMARK  238  A    between atoms: _599  and  _602
REMARK  239  A    between atoms: _602  and  _603
REMARK  240  A    between atoms: _603  and  _604
REMARK  241  A    between atoms: _604  and  _605
REMARK  242  A    between atoms: _614  and  _616
REMARK  243  A    between atoms: _616  and  _617
REMARK                            x       y       z     vdW  Elec       q    Type
REMARK                         _______ _______ _______ _____ _____    ______ ____
ROOT
ATOM      1  O   HOH     1      81.280   6.791 122.044  0.00  0.00    +0.000 OA
ENDROOT
TORSDOF 0
REMARK  Name = ../refined-set-2016/3upk/3upk_pocket.pdb
REMARK  243 active torsions:
REMARK  status: ('A' for Active; 'I' for Inactive)
REMARK    1  A    between atoms: _1  and  _3
REMARK    2  A    between atoms: _3  and  _4
REMARK    3  A    between atoms: _3  and  _6
REMARK    4  A    between atoms: _6  and  _7
REMARK    5  A    between atoms: _7  and  _8
REMARK    6  A    between atoms: _8  and  _9
REMARK    7  A    between atoms: _9  and  _10
REMARK    8  A    between atoms: _16  and  _17
REMARK    9  A    between atoms: _16  and  _19
REMARK   10  A    between atoms: _19  and  _20
REMARK   11  A    between atoms: _25  and  _27
REMARK   12  A    between atoms: _27  and  _28
REMARK   13  A    between atoms: _31  and  _33
REMARK   14  A    between atoms: _33  and  _34
REMARK   15  A    between atoms: _33  and  _36
REMARK   16  A    between atoms: _36  and  _37
REMARK   17  A    between atoms: _41  and  _42
REMARK   18  A    between atoms: _47  and  _49
REMARK   19  A    between atoms: _49  and  _50
REMARK   20  A    between atoms: _49  and  _52
REMARK   21  A    between atoms: _52  and  _53
REMARK   22  A    between atoms: _59  and  _61
REMARK   23  A    between atoms: _61  and  _62
REMARK   24  A    between atoms: _61  and  _64
REMARK   25  A    between atoms: _64  and  _65
REMARK   26  A    between atoms: _68  and  _70
REMARK   27  A    between atoms: _70  and  _71
REMARK   28  A    between atoms: _70  and  _73
REMARK   29  A    between atoms: _73  and  _74
REMARK   30  A    between atoms: _74  and  _75
REMARK   31  A    between atoms: _77  and  _79
REMARK   32  A    between atoms: _79  and  _80
REMARK   33  A    between atoms: _79  and  _82
REMARK   34  A    between atoms: _82  and  _83
REMARK   35  A    between atoms: _83  and  _84
REMARK   36  A    between atoms: _84  and  _85
REMARK   37  A    between atoms: _94  and  _96
REMARK   38  A    between atoms: _96  and  _97
REMARK   39  A    between atoms: _100  and  _102
REMARK   40  A    between atoms: _102  and  _103
REMARK   41  A    between atoms: _102  and  _105
REMARK   42  A    between atoms: _105  and  _106
REMARK   43  A    between atoms: _108  and  _110
REMARK   44  A    between atoms: _110  and  _111
REMARK   45  A    between atoms: _110  and  _113
REMARK   46  A    between atoms: _113  and  _114
REMARK   47  A    between atoms: _117  and  _119
REMARK   48  A    between atoms: _119  and  _120
REMARK   49  A    between atoms: _119  and  _122
REMARK   50  A    between atoms: _122  and  _123
REMARK   51  A    between atoms: _133  and  _135
REMARK   52  A    between atoms: _135  and  _136
REMARK   53  A    between atoms: _135  and  _138
REMARK   54  A    between atoms: _138  and  _139
REMARK   55  A    between atoms: _142  and  _144
REMARK   56  A    between atoms: _144  and  _145
REMARK   57  A    between atoms: _147  and  _149
REMARK   58  A    between atoms: _149  and  _150
REMARK   59  A    between atoms: _153  and  _155
REMARK   60  A    between atoms: _155  and  _156
REMARK   61  A    between atoms: _155  and  _158
REMARK   62  A    between atoms: _158  and  _159
REMARK   63  A    between atoms: _159  and  _160
REMARK   64  A    between atoms: _160  and  _161
REMARK   65  A    between atoms: _171  and  _172
REMARK   66  A    between atoms: _177  and  _179
REMARK   67  A    between atoms: _179  and  _180
REMARK   68  A    between atoms: _179  and  _182
REMARK   69  A    between atoms: _185  and  _187
REMARK   70  A    between atoms: _187  and  _188
REMARK   71  A    between atoms: _187  and  _190
REMARK   72  A    between atoms: _190  and  _191
REMARK   73  A    between atoms: _194  and  _196
REMARK   74  A    between atoms: _196  and  _197
REMARK   75  A    between atoms: _196  and  _199
REMARK   76  A    between atoms: _199  and  _200
REMARK   77  A    between atoms: _203  and  _205
REMARK   78  A    between atoms: _205  and  _206
REMARK   79  A    between atoms: _205  and  _208
REMARK   80  A    between atoms: _208  and  _209
REMARK   81  A    between atoms: _214  and  _216
REMARK   82  A    between atoms: _216  and  _217
REMARK   83  A    between atoms: _216  and  _219
REMARK   84  A    between atoms: _219  and  _220
REMARK   85  A    between atoms: _223  and  _225
REMARK   86  A    between atoms: _225  and  _226
REMARK   87  A    between atoms: _225  and  _228
REMARK   88  A    between atoms: _228  and  _229
REMARK   89  A    between atoms: _235  and  _237
REMARK   90  A    between atoms: _237  and  _238
REMARK   91  A    between atoms: _240  and  _242
REMARK   92  A    between atoms: _242  and  _243
REMARK   93  A    between atoms: _242  and  _245
REMARK   94  A    between atoms: _245  and  _246
REMARK   95  A    between atoms: _246  and  _247
REMARK   96  A    between atoms: _249  and  _251
REMARK   97  A    between atoms: _251  and  _252
REMARK   98  A    between atoms: _251  and  _254
REMARK   99  A    between atoms: _254  and  _255
REMARK  100  A    between atoms: _258  and  _260
REMARK  101  A    between atoms: _260  and  _261
REMARK  102  A    between atoms: _260  and  _263
REMARK  103  A    between atoms: _263  and  _264
REMARK  104  A    between atoms: _264  and  _265
REMARK  105  A    between atoms: _265  and  _266
REMARK  106  A    between atoms: _266  and  _267
REMARK  107  A    between atoms: _271  and  _273
REMARK  108  A    between atoms: _273  and  _274
REMARK  109  A    between atoms: _273  and  _276
REMARK  110  A    between atoms: _279  and  _281
REMARK  111  A    between atoms: _281  and  _282
REMARK  112  A    between atoms: _281  and  _284
REMARK  113  A    between atoms: _284  and  _285
REMARK  114  A    between atoms: _287  and  _289
REMARK  115  A    between atoms: _289  and  _290
REMARK  116  A    between atoms: _289  and  _292
REMARK  117  A    between atoms: _295  and  _297
REMARK  118  A    between atoms: _297  and  _298
REMARK  119  A    between atoms: _300  and  _302
REMARK  120  A    between atoms: _302  and  _303
REMARK  121  A    between atoms: _306  and  _308
REMARK  122  A    between atoms: _308  and  _309
REMARK  123  A    between atoms: _308  and  _311
REMARK  124  A    between atoms: _311  and  _312
REMARK  125  A    between atoms: _315  and  _317
REMARK  126  A    between atoms: _317  and  _318
REMARK  127  A    between atoms: _317  and  _320
REMARK  128  A    between atoms: _323  and  _325
REMARK  129  A    between atoms: _325  and  _326
REMARK  130  A    between atoms: _325  and  _328
REMARK  131  A    between atoms: _328  and  _329
REMARK  132  A    between atoms: _332  and  _334
REMARK  133  A    between atoms: _334  and  _335
REMARK  134  A    between atoms: _338  and  _340
REMARK  135  A    between atoms: _340  and  _341
REMARK  136  A    between atoms: _340  and  _343
REMARK  137  A    between atoms: _343  and  _344
REMARK  138  A    between atoms: _344  and  _345
REMARK  139  A    between atoms: _345  and  _346
REMARK  140  A    between atoms: _355  and  _357
REMARK  141  A    between atoms: _357  and  _358
REMARK  142  A    between atoms: _357  and  _360
REMARK  143  A    between atoms: _360  and  _361
REMARK  144  A    between atoms: _361  and  _362
REMARK  145  A    between atoms: _365  and  _367
REMARK  146  A    between atoms: _367  and  _368
REMARK  147  A    between atoms: _367  and  _370
REMARK  148  A    between atoms: _370  and  _371
REMARK  149  A    between atoms: _371  and  _372
REMARK  150  A    between atoms: _375  and  _377
REMARK  151  A    between atoms: _377  and  _378
REMARK  152  A    between atoms: _377  and  _380
REMARK  153  A    between atoms: _380  and  _381
REMARK  154  A    between atoms: _384  and  _386
REMARK  155  A    between atoms: _386  and  _387
REMARK  156  A    between atoms: _386  and  _389
REMARK  157  A    between atoms: _389  and  _390
REMARK  158  A    between atoms: _390  and  _391
REMARK  159  A    between atoms: _391  and  _392
REMARK  160  A    between atoms: _401  and  _403
REMARK  161  A    between atoms: _403  and  _404
REMARK  162  A    between atoms: _403  and  _406
REMARK  163  A    between atoms: _406  and  _407
REMARK  164  A    between atoms: _410  and  _412
REMARK  165  A    between atoms: _412  and  _413
REMARK  166  A    between atoms: _412  and  _415
REMARK  167  A    between atoms: _415  and  _416
REMARK  168  A    between atoms: _419  and  _421
REMARK  169  A    between atoms: _421  and  _422
REMARK  170  A    between atoms: _426  and  _427
REMARK  171  A    between atoms: _432  and  _434
REMARK  172  A    between atoms: _434  and  _435
REMARK  173  A    between atoms: _434  and  _437
REMARK  174  A    between atoms: _437  and  _438
REMARK  175  A    between atoms: _443  and  _445
REMARK  176  A    between atoms: _445  and  _446
REMARK  177  A    between atoms: _445  and  _448
REMARK  178  A    between atoms: _448  and  _449
REMARK  179  A    between atoms: _456  and  _457
REMARK  180  A    between atoms: _462  and  _464
REMARK  181  A    between atoms: _464  and  _465
REMARK  182  A    between atoms: _464  and  _467
REMARK  183  A    between atoms: _467  and  _468
REMARK  184  A    between atoms: _471  and  _473
REMARK  185  A    between atoms: _473  and  _474
REMARK  186  A    between atoms: _473  and  _476
REMARK  187  A    between atoms: _476  and  _477
REMARK  188  A    between atoms: _480  and  _482
REMARK  189  A    between atoms: _482  and  _483
REMARK  190  A    between atoms: _482  and  _485
REMARK  191  A    between atoms: _485  and  _486
REMARK  192  A    between atoms: _486  and  _487
REMARK  193  A    between atoms: _489  and  _491
REMARK  194  A    between atoms: _491  and  _492
REMARK  195  A    between atoms: _491  and  _494
REMARK  196  A    between atoms: _494  and  _495
REMARK  197  A    between atoms: _495  and  _496
REMARK  198  A    between atoms: _501  and  _503
REMARK  199  A    between atoms: _503  and  _504
REMARK  200  A    between atoms: _503  and  _506
REMARK  201  A    between atoms: _506  and  _507
REMARK  202  A    between atoms: _507  and  _508
REMARK  203  A    between atoms: _511  and  _513
REMARK  204  A    between atoms: _513  and  _514
REMARK  205  A    between atoms: _513  and  _516
REMARK  206  A    between atoms: _516  and  _517
REMARK  207  A    between atoms: _520  and  _522
REMARK  208  A    between atoms: _522  and  _523
REMARK  209  A    between atoms: _522  and  _525
REMARK  210  A    between atoms: _525  and  _526
REMARK  211  A    between atoms: _529  and  _531
REMARK  212  A    between atoms: _531  and  _532
REMARK  213  A    between atoms: _531  and  _534
REMARK  214  A    between atoms: _534  and  _535
REMARK  215  A    between atoms: _543  and  _544
REMARK  216  A    between atoms: _543  and  _546
REMARK  217  A    between atoms: _546  and  _547
REMARK  218  A    between atoms: _547  and  _548
REMARK  219  A    between atoms: _551  and  _553
REMARK  220  A    between atoms: _553  and  _554
REMARK  221  A    between atoms: _553  and  _556
REMARK  222  A    between atoms: _556  and  _557
REMARK  223  A    between atoms: _562  and  _564
REMARK  224  A    between atoms: _564  and  _565
REMARK  225  A    between atoms: _564  and  _567
REMARK  226  A    between atoms: _567  and  _568
REMARK  227  A    between atoms: _568  and  _569
REMARK  228  A    between atoms: _569  and  _570
REMARK  229  A    between atoms: _579  and  _581
REMARK  230  A    between atoms: _581  and  _582
REMARK  231  A    between atoms: _581  and  _584
REMARK  232  A    between atoms: _584  and  _585
REMARK  233  A    between atoms: _590  and  _591
REMARK  234  A    between atoms: _590  and  _593
REMARK  235  A    between atoms: _593  and  _594
REMARK  236  A    between atoms: _597  and  _599
REMARK  237  A    between atoms: _599  and  _600
REMARK  238  A    between atoms: _599  and  _602
REMARK  239  A    between atoms: _602  and  _603
REMARK  240  A    between atoms: _603  and  _604
REMARK  241  A    between atoms: _604  and  _605
REMARK  242  A    between atoms: _614  and  _616
REMARK  243  A    between atoms: _616  and  _617
REMARK                            x       y       z     vdW  Elec       q    Type
REMARK                         _______ _______ _______ _____ _____    ______ ____
ROOT
ATOM      1  O   HOH     1      81.166   4.582 125.112  0.00  0.00    +0.000 OA
ENDROOT
TORSDOF 0
REMARK  Name = ../refined-set-2016/3upk/3upk_pocket.pdb
REMARK  243 active torsions:
REMARK  status: ('A' for Active; 'I' for Inactive)
REMARK    1  A    between atoms: _1  and  _3
REMARK    2  A    between atoms: _3  and  _4
REMARK    3  A    between atoms: _3  and  _6
REMARK    4  A    between atoms: _6  and  _7
REMARK    5  A    between atoms: _7  and  _8
REMARK    6  A    between atoms: _8  and  _9
REMARK    7  A    between atoms: _9  and  _10
REMARK    8  A    between atoms: _16  and  _17
REMARK    9  A    between atoms: _16  and  _19
REMARK   10  A    between atoms: _19  and  _20
REMARK   11  A    between atoms: _25  and  _27
REMARK   12  A    between atoms: _27  and  _28
REMARK   13  A    between atoms: _31  and  _33
REMARK   14  A    between atoms: _33  and  _34
REMARK   15  A    between atoms: _33  and  _36
REMARK   16  A    between atoms: _36  and  _37
REMARK   17  A    between atoms: _41  and  _42
REMARK   18  A    between atoms: _47  and  _49
REMARK   19  A    between atoms: _49  and  _50
REMARK   20  A    between atoms: _49  and  _52
REMARK   21  A    between atoms: _52  and  _53
REMARK   22  A    between atoms: _59  and  _61
REMARK   23  A    between atoms: _61  and  _62
REMARK   24  A    between atoms: _61  and  _64
REMARK   25  A    between atoms: _64  and  _65
REMARK   26  A    between atoms: _68  and  _70
REMARK   27  A    between atoms: _70  and  _71
REMARK   28  A    between atoms: _70  and  _73
REMARK   29  A    between atoms: _73  and  _74
REMARK   30  A    between atoms: _74  and  _75
REMARK   31  A    between atoms: _77  and  _79
REMARK   32  A    between atoms: _79  and  _80
REMARK   33  A    between atoms: _79  and  _82
REMARK   34  A    between atoms: _82  and  _83
REMARK   35  A    between atoms: _83  and  _84
REMARK   36  A    between atoms: _84  and  _85
REMARK   37  A    between atoms: _94  and  _96
REMARK   38  A    between atoms: _96  and  _97
REMARK   39  A    between atoms: _100  and  _102
REMARK   40  A    between atoms: _102  and  _103
REMARK   41  A    between atoms: _102  and  _105
REMARK   42  A    between atoms: _105  and  _106
REMARK   43  A    between atoms: _108  and  _110
REMARK   44  A    between atoms: _110  and  _111
REMARK   45  A    between atoms: _110  and  _113
REMARK   46  A    between atoms: _113  and  _114
REMARK   47  A    between atoms: _117  and  _119
REMARK   48  A    between atoms: _119  and  _120
REMARK   49  A    between atoms: _119  and  _122
REMARK   50  A    between atoms: _122  and  _123
REMARK   51  A    between atoms: _133  and  _135
REMARK   52  A    between atoms: _135  and  _136
REMARK   53  A    between atoms: _135  and  _138
REMARK   54  A    between atoms: _138  and  _139
REMARK   55  A    between atoms: _142  and  _144
REMARK   56  A    between atoms: _144  and  _145
REMARK   57  A    between atoms: _147  and  _149
REMARK   58  A    between atoms: _149  and  _150
REMARK   59  A    between atoms: _153  and  _155
REMARK   60  A    between atoms: _155  and  _156
REMARK   61  A    between atoms: _155  and  _158
REMARK   62  A    between atoms: _158  and  _159
REMARK   63  A    between atoms: _159  and  _160
REMARK   64  A    between atoms: _160  and  _161
REMARK   65  A    between atoms: _171  and  _172
REMARK   66  A    between atoms: _177  and  _179
REMARK   67  A    between atoms: _179  and  _180
REMARK   68  A    between atoms: _179  and  _182
REMARK   69  A    between atoms: _185  and  _187
REMARK   70  A    between atoms: _187  and  _188
REMARK   71  A    between atoms: _187  and  _190
REMARK   72  A    between atoms: _190  and  _191
REMARK   73  A    between atoms: _194  and  _196
REMARK   74  A    between atoms: _196  and  _197
REMARK   75  A    between atoms: _196  and  _199
REMARK   76  A    between atoms: _199  and  _200
REMARK   77  A    between atoms: _203  and  _205
REMARK   78  A    between atoms: _205  and  _206
REMARK   79  A    between atoms: _205  and  _208
REMARK   80  A    between atoms: _208  and  _209
REMARK   81  A    between atoms: _214  and  _216
REMARK   82  A    between atoms: _216  and  _217
REMARK   83  A    between atoms: _216  and  _219
REMARK   84  A    between atoms: _219  and  _220
REMARK   85  A    between atoms: _223  and  _225
REMARK   86  A    between atoms: _225  and  _226
REMARK   87  A    between atoms: _225  and  _228
REMARK   88  A    between atoms: _228  and  _229
REMARK   89  A    between atoms: _235  and  _237
REMARK   90  A    between atoms: _237  and  _238
REMARK   91  A    between atoms: _240  and  _242
REMARK   92  A    between atoms: _242  and  _243
REMARK   93  A    between atoms: _242  and  _245
REMARK   94  A    between atoms: _245  and  _246
REMARK   95  A    between atoms: _246  and  _247
REMARK   96  A    between atoms: _249  and  _251
REMARK   97  A    between atoms: _251  and  _252
REMARK   98  A    between atoms: _251  and  _254
REMARK   99  A    between atoms: _254  and  _255
REMARK  100  A    between atoms: _258  and  _260
REMARK  101  A    between atoms: _260  and  _261
REMARK  102  A    between atoms: _260  and  _263
REMARK  103  A    between atoms: _263  and  _264
REMARK  104  A    between atoms: _264  and  _265
REMARK  105  A    between atoms: _265  and  _266
REMARK  106  A    between atoms: _266  and  _267
REMARK  107  A    between atoms: _271  and  _273
REMARK  108  A    between atoms: _273  and  _274
REMARK  109  A    between atoms: _273  and  _276
REMARK  110  A    between atoms: _279  and  _281
REMARK  111  A    between atoms: _281  and  _282
REMARK  112  A    between atoms: _281  and  _284
REMARK  113  A    between atoms: _284  and  _285
REMARK  114  A    between atoms: _287  and  _289
REMARK  115  A    between atoms: _289  and  _290
REMARK  116  A    between atoms: _289  and  _292
REMARK  117  A    between atoms: _295  and  _297
REMARK  118  A    between atoms: _297  and  _298
REMARK  119  A    between atoms: _300  and  _302
REMARK  120  A    between atoms: _302  and  _303
REMARK  121  A    between atoms: _306  and  _308
REMARK  122  A    between atoms: _308  and  _309
REMARK  123  A    between atoms: _308  and  _311
REMARK  124  A    between atoms: _311  and  _312
REMARK  125  A    between atoms: _315  and  _317
REMARK  126  A    between atoms: _317  and  _318
REMARK  127  A    between atoms: _317  and  _320
REMARK  128  A    between atoms: _323  and  _325
REMARK  129  A    between atoms: _325  and  _326
REMARK  130  A    between atoms: _325  and  _328
REMARK  131  A    between atoms: _328  and  _329
REMARK  132  A    between atoms: _332  and  _334
REMARK  133  A    between atoms: _334  and  _335
REMARK  134  A    between atoms: _338  and  _340
REMARK  135  A    between atoms: _340  and  _341
REMARK  136  A    between atoms: _340  and  _343
REMARK  137  A    between atoms: _343  and  _344
REMARK  138  A    between atoms: _344  and  _345
REMARK  139  A    between atoms: _345  and  _346
REMARK  140  A    between atoms: _355  and  _357
REMARK  141  A    between atoms: _357  and  _358
REMARK  142  A    between atoms: _357  and  _360
REMARK  143  A    between atoms: _360  and  _361
REMARK  144  A    between atoms: _361  and  _362
REMARK  145  A    between atoms: _365  and  _367
REMARK  146  A    between atoms: _367  and  _368
REMARK  147  A    between atoms: _367  and  _370
REMARK  148  A    between atoms: _370  and  _371
REMARK  149  A    between atoms: _371  and  _372
REMARK  150  A    between atoms: _375  and  _377
REMARK  151  A    between atoms: _377  and  _378
REMARK  152  A    between atoms: _377  and  _380
REMARK  153  A    between atoms: _380  and  _381
REMARK  154  A    between atoms: _384  and  _386
REMARK  155  A    between atoms: _386  and  _387
REMARK  156  A    between atoms: _386  and  _389
REMARK  157  A    between atoms: _389  and  _390
REMARK  158  A    between atoms: _390  and  _391
REMARK  159  A    between atoms: _391  and  _392
REMARK  160  A    between atoms: _401  and  _403
REMARK  161  A    between atoms: _403  and  _404
REMARK  162  A    between atoms: _403  and  _406
REMARK  163  A    between atoms: _406  and  _407
REMARK  164  A    between atoms: _410  and  _412
REMARK  165  A    between atoms: _412  and  _413
REMARK  166  A    between atoms: _412  and  _415
REMARK  167  A    between atoms: _415  and  _416
REMARK  168  A    between atoms: _419  and  _421
REMARK  169  A    between atoms: _421  and  _422
REMARK  170  A    between atoms: _426  and  _427
REMARK  171  A    between atoms: _432  and  _434
REMARK  172  A    between atoms: _434  and  _435
REMARK  173  A    between atoms: _434  and  _437
REMARK  174  A    between atoms: _437  and  _438
REMARK  175  A    between atoms: _443  and  _445
REMARK  176  A    between atoms: _445  and  _446
REMARK  177  A    between atoms: _445  and  _448
REMARK  178  A    between atoms: _448  and  _449
REMARK  179  A    between atoms: _456  and  _457
REMARK  180  A    between atoms: _462  and  _464
REMARK  181  A    between atoms: _464  and  _465
REMARK  182  A    between atoms: _464  and  _467
REMARK  183  A    between atoms: _467  and  _468
REMARK  184  A    between atoms: _471  and  _473
REMARK  185  A    between atoms: _473  and  _474
REMARK  186  A    between atoms: _473  and  _476
REMARK  187  A    between atoms: _476  and  _477
REMARK  188  A    between atoms: _480  and  _482
REMARK  189  A    between atoms: _482  and  _483
REMARK  190  A    between atoms: _482  and  _485
REMARK  191  A    between atoms: _485  and  _486
REMARK  192  A    between atoms: _486  and  _487
REMARK  193  A    between atoms: _489  and  _491
REMARK  194  A    between atoms: _491  and  _492
REMARK  195  A    between atoms: _491  and  _494
REMARK  196  A    between atoms: _494  and  _495
REMARK  197  A    between atoms: _495  and  _496
REMARK  198  A    between atoms: _501  and  _503
REMARK  199  A    between atoms: _503  and  _504
REMARK  200  A    between atoms: _503  and  _506
REMARK  201  A    between atoms: _506  and  _507
REMARK  202  A    between atoms: _507  and  _508
REMARK  203  A    between atoms: _511  and  _513
REMARK  204  A    between atoms: _513  and  _514
REMARK  205  A    between atoms: _513  and  _516
REMARK  206  A    between atoms: _516  and  _517
REMARK  207  A    between atoms: _520  and  _522
REMARK  208  A    between atoms: _522  and  _523
REMARK  209  A    between atoms: _522  and  _525
REMARK  210  A    between atoms: _525  and  _526
REMARK  211  A    between atoms: _529  and  _531
REMARK  212  A    between atoms: _531  and  _532
REMARK  213  A    between atoms: _531  and  _534
REMARK  214  A    between atoms: _534  and  _535
REMARK  215  A    between atoms: _543  and  _544
REMARK  216  A    between atoms: _543  and  _546
REMARK  217  A    between atoms: _546  and  _547
REMARK  218  A    between atoms: _547  and  _548
REMARK  219  A    between atoms: _551  and  _553
REMARK  220  A    between atoms: _553  and  _554
REMARK  221  A    between atoms: _553  and  _556
REMARK  222  A    between atoms: _556  and  _557
REMARK  223  A    between atoms: _562  and  _564
REMARK  224  A    between atoms: _564  and  _565
REMARK  225  A    between atoms: _564  and  _567
REMARK  226  A    between atoms: _567  and  _568
REMARK  227  A    between atoms: _568  and  _569
REMARK  228  A    between atoms: _569  and  _570
REMARK  229  A    between atoms: _579  and  _581
REMARK  230  A    between atoms: _581  and  _582
REMARK  231  A    between atoms: _581  and  _584
REMARK  232  A    between atoms: _584  and  _585
REMARK  233  A    between atoms: _590  and  _591
REMARK  234  A    between atoms: _590  and  _593
REMARK  235  A    between atoms: _593  and  _594
REMARK  236  A    between atoms: _597  and  _599
REMARK  237  A    between atoms: _599  and  _600
REMARK  238  A    between atoms: _599  and  _602
REMARK  239  A    between atoms: _602  and  _603
REMARK  240  A    between atoms: _603  and  _604
REMARK  241  A    between atoms: _604  and  _605
REMARK  242  A    between atoms: _614  and  _616
REMARK  243  A    between atoms: _616  and  _617
REMARK                            x       y       z     vdW  Elec       q    Type
REMARK                         _______ _______ _______ _____ _____    ______ ____
ROOT
ATOM      1  O   HOH     1      81.795   7.218 124.865  0.00  0.00    +0.000 OA
ENDROOT
TORSDOF 0
REMARK  Name = ../refined-set-2016/3upk/3upk_pocket.pdb
REMARK  243 active torsions:
REMARK  status: ('A' for Active; 'I' for Inactive)
REMARK    1  A    between atoms: _1  and  _3
REMARK    2  A    between atoms: _3  and  _4
REMARK    3  A    between atoms: _3  and  _6
REMARK    4  A    between atoms: _6  and  _7
REMARK    5  A    between atoms: _7  and  _8
REMARK    6  A    between atoms: _8  and  _9
REMARK    7  A    between atoms: _9  and  _10
REMARK    8  A    between atoms: _16  and  _17
REMARK    9  A    between atoms: _16  and  _19
REMARK   10  A    between atoms: _19  and  _20
REMARK   11  A    between atoms: _25  and  _27
REMARK   12  A    between atoms: _27  and  _28
REMARK   13  A    between atoms: _31  and  _33
REMARK   14  A    between atoms: _33  and  _34
REMARK   15  A    between atoms: _33  and  _36
REMARK   16  A    between atoms: _36  and  _37
REMARK   17  A    between atoms: _41  and  _42
REMARK   18  A    between atoms: _47  and  _49
REMARK   19  A    between atoms: _49  and  _50
REMARK   20  A    between atoms: _49  and  _52
REMARK   21  A    between atoms: _52  and  _53
REMARK   22  A    between atoms: _59  and  _61
REMARK   23  A    between atoms: _61  and  _62
REMARK   24  A    between atoms: _61  and  _64
REMARK   25  A    between atoms: _64  and  _65
REMARK   26  A    between atoms: _68  and  _70
REMARK   27  A    between atoms: _70  and  _71
REMARK   28  A    between atoms: _70  and  _73
REMARK   29  A    between atoms: _73  and  _74
REMARK   30  A    between atoms: _74  and  _75
REMARK   31  A    between atoms: _77  and  _79
REMARK   32  A    between atoms: _79  and  _80
REMARK   33  A    between atoms: _79  and  _82
REMARK   34  A    between atoms: _82  and  _83
REMARK   35  A    between atoms: _83  and  _84
REMARK   36  A    between atoms: _84  and  _85
REMARK   37  A    between atoms: _94  and  _96
REMARK   38  A    between atoms: _96  and  _97
REMARK   39  A    between atoms: _100  and  _102
REMARK   40  A    between atoms: _102  and  _103
REMARK   41  A    between atoms: _102  and  _105
REMARK   42  A    between atoms: _105  and  _106
REMARK   43  A    between atoms: _108  and  _110
REMARK   44  A    between atoms: _110  and  _111
REMARK   45  A    between atoms: _110  and  _113
REMARK   46  A    between atoms: _113  and  _114
REMARK   47  A    between atoms: _117  and  _119
REMARK   48  A    between atoms: _119  and  _120
REMARK   49  A    between atoms: _119  and  _122
REMARK   50  A    between atoms: _122  and  _123
REMARK   51  A    between atoms: _133  and  _135
REMARK   52  A    between atoms: _135  and  _136
REMARK   53  A    between atoms: _135  and  _138
REMARK   54  A    between atoms: _138  and  _139
REMARK   55  A    between atoms: _142  and  _144
REMARK   56  A    between atoms: _144  and  _145
REMARK   57  A    between atoms: _147  and  _149
REMARK   58  A    between atoms: _149  and  _150
REMARK   59  A    between atoms: _153  and  _155
REMARK   60  A    between atoms: _155  and  _156
REMARK   61  A    between atoms: _155  and  _158
REMARK   62  A    between atoms: _158  and  _159
REMARK   63  A    between atoms: _159  and  _160
REMARK   64  A    between atoms: _160  and  _161
REMARK   65  A    between atoms: _171  and  _172
REMARK   66  A    between atoms: _177  and  _179
REMARK   67  A    between atoms: _179  and  _180
REMARK   68  A    between atoms: _179  and  _182
REMARK   69  A    between atoms: _185  and  _187
REMARK   70  A    between atoms: _187  and  _188
REMARK   71  A    between atoms: _187  and  _190
REMARK   72  A    between atoms: _190  and  _191
REMARK   73  A    between atoms: _194  and  _196
REMARK   74  A    between atoms: _196  and  _197
REMARK   75  A    between atoms: _196  and  _199
REMARK   76  A    between atoms: _199  and  _200
REMARK   77  A    between atoms: _203  and  _205
REMARK   78  A    between atoms: _205  and  _206
REMARK   79  A    between atoms: _205  and  _208
REMARK   80  A    between atoms: _208  and  _209
REMARK   81  A    between atoms: _214  and  _216
REMARK   82  A    between atoms: _216  and  _217
REMARK   83  A    between atoms: _216  and  _219
REMARK   84  A    between atoms: _219  and  _220
REMARK   85  A    between atoms: _223  and  _225
REMARK   86  A    between atoms: _225  and  _226
REMARK   87  A    between atoms: _225  and  _228
REMARK   88  A    between atoms: _228  and  _229
REMARK   89  A    between atoms: _235  and  _237
REMARK   90  A    between atoms: _237  and  _238
REMARK   91  A    between atoms: _240  and  _242
REMARK   92  A    between atoms: _242  and  _243
REMARK   93  A    between atoms: _242  and  _245
REMARK   94  A    between atoms: _245  and  _246
REMARK   95  A    between atoms: _246  and  _247
REMARK   96  A    between atoms: _249  and  _251
REMARK   97  A    between atoms: _251  and  _252
REMARK   98  A    between atoms: _251  and  _254
REMARK   99  A    between atoms: _254  and  _255
REMARK  100  A    between atoms: _258  and  _260
REMARK  101  A    between atoms: _260  and  _261
REMARK  102  A    between atoms: _260  and  _263
REMARK  103  A    between atoms: _263  and  _264
REMARK  104  A    between atoms: _264  and  _265
REMARK  105  A    between atoms: _265  and  _266
REMARK  106  A    between atoms: _266  and  _267
REMARK  107  A    between atoms: _271  and  _273
REMARK  108  A    between atoms: _273  and  _274
REMARK  109  A    between atoms: _273  and  _276
REMARK  110  A    between atoms: _279  and  _281
REMARK  111  A    between atoms: _281  and  _282
REMARK  112  A    between atoms: _281  and  _284
REMARK  113  A    between atoms: _284  and  _285
REMARK  114  A    between atoms: _287  and  _289
REMARK  115  A    between atoms: _289  and  _290
REMARK  116  A    between atoms: _289  and  _292
REMARK  117  A    between atoms: _295  and  _297
REMARK  118  A    between atoms: _297  and  _298
REMARK  119  A    between atoms: _300  and  _302
REMARK  120  A    between atoms: _302  and  _303
REMARK  121  A    between atoms: _306  and  _308
REMARK  122  A    between atoms: _308  and  _309
REMARK  123  A    between atoms: _308  and  _311
REMARK  124  A    between atoms: _311  and  _312
REMARK  125  A    between atoms: _315  and  _317
REMARK  126  A    between atoms: _317  and  _318
REMARK  127  A    between atoms: _317  and  _320
REMARK  128  A    between atoms: _323  and  _325
REMARK  129  A    between atoms: _325  and  _326
REMARK  130  A    between atoms: _325  and  _328
REMARK  131  A    between atoms: _328  and  _329
REMARK  132  A    between atoms: _332  and  _334
REMARK  133  A    between atoms: _334  and  _335
REMARK  134  A    between atoms: _338  and  _340
REMARK  135  A    between atoms: _340  and  _341
REMARK  136  A    between atoms: _340  and  _343
REMARK  137  A    between atoms: _343  and  _344
REMARK  138  A    between atoms: _344  and  _345
REMARK  139  A    between atoms: _345  and  _346
REMARK  140  A    between atoms: _355  and  _357
REMARK  141  A    between atoms: _357  and  _358
REMARK  142  A    between atoms: _357  and  _360
REMARK  143  A    between atoms: _360  and  _361
REMARK  144  A    between atoms: _361  and  _362
REMARK  145  A    between atoms: _365  and  _367
REMARK  146  A    between atoms: _367  and  _368
REMARK  147  A    between atoms: _367  and  _370
REMARK  148  A    between atoms: _370  and  _371
REMARK  149  A    between atoms: _371  and  _372
REMARK  150  A    between atoms: _375  and  _377
REMARK  151  A    between atoms: _377  and  _378
REMARK  152  A    between atoms: _377  and  _380
REMARK  153  A    between atoms: _380  and  _381
REMARK  154  A    between atoms: _384  and  _386
REMARK  155  A    between atoms: _386  and  _387
REMARK  156  A    between atoms: _386  and  _389
REMARK  157  A    between atoms: _389  and  _390
REMARK  158  A    between atoms: _390  and  _391
REMARK  159  A    between atoms: _391  and  _392
REMARK  160  A    between atoms: _401  and  _403
REMARK  161  A    between atoms: _403  and  _404
REMARK  162  A    between atoms: _403  and  _406
REMARK  163  A    between atoms: _406  and  _407
REMARK  164  A    between atoms: _410  and  _412
REMARK  165  A    between atoms: _412  and  _413
REMARK  166  A    between atoms: _412  and  _415
REMARK  167  A    between atoms: _415  and  _416
REMARK  168  A    between atoms: _419  and  _421
REMARK  169  A    between atoms: _421  and  _422
REMARK  170  A    between atoms: _426  and  _427
REMARK  171  A    between atoms: _432  and  _434
REMARK  172  A    between atoms: _434  and  _435
REMARK  173  A    between atoms: _434  and  _437
REMARK  174  A    between atoms: _437  and  _438
REMARK  175  A    between atoms: _443  and  _445
REMARK  176  A    between atoms: _445  and  _446
REMARK  177  A    between atoms: _445  and  _448
REMARK  178  A    between atoms: _448  and  _449
REMARK  179  A    between atoms: _456  and  _457
REMARK  180  A    between atoms: _462  and  _464
REMARK  181  A    between atoms: _464  and  _465
REMARK  182  A    between atoms: _464  and  _467
REMARK  183  A    between atoms: _467  and  _468
REMARK  184  A    between atoms: _471  and  _473
REMARK  185  A    between atoms: _473  and  _474
REMARK  186  A    between atoms: _473  and  _476
REMARK  187  A    between atoms: _476  and  _477
REMARK  188  A    between atoms: _480  and  _482
REMARK  189  A    between atoms: _482  and  _483
REMARK  190  A    between atoms: _482  and  _485
REMARK  191  A    between atoms: _485  and  _486
REMARK  192  A    between atoms: _486  and  _487
REMARK  193  A    between atoms: _489  and  _491
REMARK  194  A    between atoms: _491  and  _492
REMARK  195  A    between atoms: _491  and  _494
REMARK  196  A    between atoms: _494  and  _495
REMARK  197  A    between atoms: _495  and  _496
REMARK  198  A    between atoms: _501  and  _503
REMARK  199  A    between atoms: _503  and  _504
REMARK  200  A    between atoms: _503  and  _506
REMARK  201  A    between atoms: _506  and  _507
REMARK  202  A    between atoms: _507  and  _508
REMARK  203  A    between atoms: _511  and  _513
REMARK  204  A    between atoms: _513  and  _514
REMARK  205  A    between atoms: _513  and  _516
REMARK  206  A    between atoms: _516  and  _517
REMARK  207  A    between atoms: _520  and  _522
REMARK  208  A    between atoms: _522  and  _523
REMARK  209  A    between atoms: _522  and  _525
REMARK  210  A    between atoms: _525  and  _526
REMARK  211  A    between atoms: _529  and  _531
REMARK  212  A    between atoms: _531  and  _532
REMARK  213  A    between atoms: _531  and  _534
REMARK  214  A    between atoms: _534  and  _535
REMARK  215  A    between atoms: _543  and  _544
REMARK  216  A    between atoms: _543  and  _546
REMARK  217  A    between atoms: _546  and  _547
REMARK  218  A    between atoms: _547  and  _548
REMARK  219  A    between atoms: _551  and  _553
REMARK  220  A    between atoms: _553  and  _554
REMARK  221  A    between atoms: _553  and  _556
REMARK  222  A    between atoms: _556  and  _557
REMARK  223  A    between atoms: _562  and  _564
REMARK  224  A    between atoms: _564  and  _565
REMARK  225  A    between atoms: _564  and  _567
REMARK  226  A    between atoms: _567  and  _568
REMARK  227  A    between atoms: _568  and  _569
REMARK  228  A    between atoms: _569  and  _570
REMARK  229  A    between atoms: _579  and  _581
REMARK  230  A    between atoms: _581  and  _582
REMARK  231  A    between atoms: _581  and  _584
REMARK  232  A    between atoms: _584  and  _585
REMARK  233  A    between atoms: _590  and  _591
REMARK  234  A    between atoms: _590  and  _593
REMARK  235  A    between atoms: _593  and  _594
REMARK  236  A    between atoms: _597  and  _599
REMARK  237  A    between atoms: _599  and  _600
REMARK  238  A    between atoms: _599  and  _602
REMARK  239  A    between atoms: _602  and  _603
REMARK  240  A    between atoms: _603  and  _604
REMARK  241  A    between atoms: _604  and  _605
REMARK  242  A    between atoms: _614  and  _616
REMARK  243  A    between atoms: _616  and  _617
REMARK                            x       y       z     vdW  Elec       q    Type
REMARK                         _______ _______ _______ _____ _____    ______ ____
ROOT
ATOM      1  O   HOH     1      73.596   9.013 125.376  0.00  0.00    +0.000 OA
ENDROOT
TORSDOF 0
REMARK  Name = ../refined-set-2016/3upk/3upk_pocket.pdb
REMARK  243 active torsions:
REMARK  status: ('A' for Active; 'I' for Inactive)
REMARK    1  A    between atoms: _1  and  _3
REMARK    2  A    between atoms: _3  and  _4
REMARK    3  A    between atoms: _3  and  _6
REMARK    4  A    between atoms: _6  and  _7
REMARK    5  A    between atoms: _7  and  _8
REMARK    6  A    between atoms: _8  and  _9
REMARK    7  A    between atoms: _9  and  _10
REMARK    8  A    between atoms: _16  and  _17
REMARK    9  A    between atoms: _16  and  _19
REMARK   10  A    between atoms: _19  and  _20
REMARK   11  A    between atoms: _25  and  _27
REMARK   12  A    between atoms: _27  and  _28
REMARK   13  A    between atoms: _31  and  _33
REMARK   14  A    between atoms: _33  and  _34
REMARK   15  A    between atoms: _33  and  _36
REMARK   16  A    between atoms: _36  and  _37
REMARK   17  A    between atoms: _41  and  _42
REMARK   18  A    between atoms: _47  and  _49
REMARK   19  A    between atoms: _49  and  _50
REMARK   20  A    between atoms: _49  and  _52
REMARK   21  A    between atoms: _52  and  _53
REMARK   22  A    between atoms: _59  and  _61
REMARK   23  A    between atoms: _61  and  _62
REMARK   24  A    between atoms: _61  and  _64
REMARK   25  A    between atoms: _64  and  _65
REMARK   26  A    between atoms: _68  and  _70
REMARK   27  A    between atoms: _70  and  _71
REMARK   28  A    between atoms: _70  and  _73
REMARK   29  A    between atoms: _73  and  _74
REMARK   30  A    between atoms: _74  and  _75
REMARK   31  A    between atoms: _77  and  _79
REMARK   32  A    between atoms: _79  and  _80
REMARK   33  A    between atoms: _79  and  _82
REMARK   34  A    between atoms: _82  and  _83
REMARK   35  A    between atoms: _83  and  _84
REMARK   36  A    between atoms: _84  and  _85
REMARK   37  A    between atoms: _94  and  _96
REMARK   38  A    between atoms: _96  and  _97
REMARK   39  A    between atoms: _100  and  _102
REMARK   40  A    between atoms: _102  and  _103
REMARK   41  A    between atoms: _102  and  _105
REMARK   42  A    between atoms: _105  and  _106
REMARK   43  A    between atoms: _108  and  _110
REMARK   44  A    between atoms: _110  and  _111
REMARK   45  A    between atoms: _110  and  _113
REMARK   46  A    between atoms: _113  and  _114
REMARK   47  A    between atoms: _117  and  _119
REMARK   48  A    between atoms: _119  and  _120
REMARK   49  A    between atoms: _119  and  _122
REMARK   50  A    between atoms: _122  and  _123
REMARK   51  A    between atoms: _133  and  _135
REMARK   52  A    between atoms: _135  and  _136
REMARK   53  A    between atoms: _135  and  _138
REMARK   54  A    between atoms: _138  and  _139
REMARK   55  A    between atoms: _142  and  _144
REMARK   56  A    between atoms: _144  and  _145
REMARK   57  A    between atoms: _147  and  _149
REMARK   58  A    between atoms: _149  and  _150
REMARK   59  A    between atoms: _153  and  _155
REMARK   60  A    between atoms: _155  and  _156
REMARK   61  A    between atoms: _155  and  _158
REMARK   62  A    between atoms: _158  and  _159
REMARK   63  A    between atoms: _159  and  _160
REMARK   64  A    between atoms: _160  and  _161
REMARK   65  A    between atoms: _171  and  _172
REMARK   66  A    between atoms: _177  and  _179
REMARK   67  A    between atoms: _179  and  _180
REMARK   68  A    between atoms: _179  and  _182
REMARK   69  A    between atoms: _185  and  _187
REMARK   70  A    between atoms: _187  and  _188
REMARK   71  A    between atoms: _187  and  _190
REMARK   72  A    between atoms: _190  and  _191
REMARK   73  A    between atoms: _194  and  _196
REMARK   74  A    between atoms: _196  and  _197
REMARK   75  A    between atoms: _196  and  _199
REMARK   76  A    between atoms: _199  and  _200
REMARK   77  A    between atoms: _203  and  _205
REMARK   78  A    between atoms: _205  and  _206
REMARK   79  A    between atoms: _205  and  _208
REMARK   80  A    between atoms: _208  and  _209
REMARK   81  A    between atoms: _214  and  _216
REMARK   82  A    between atoms: _216  and  _217
REMARK   83  A    between atoms: _216  and  _219
REMARK   84  A    between atoms: _219  and  _220
REMARK   85  A    between atoms: _223  and  _225
REMARK   86  A    between atoms: _225  and  _226
REMARK   87  A    between atoms: _225  and  _228
REMARK   88  A    between atoms: _228  and  _229
REMARK   89  A    between atoms: _235  and  _237
REMARK   90  A    between atoms: _237  and  _238
REMARK   91  A    between atoms: _240  and  _242
REMARK   92  A    between atoms: _242  and  _243
REMARK   93  A    between atoms: _242  and  _245
REMARK   94  A    between atoms: _245  and  _246
REMARK   95  A    between atoms: _246  and  _247
REMARK   96  A    between atoms: _249  and  _251
REMARK   97  A    between atoms: _251  and  _252
REMARK   98  A    between atoms: _251  and  _254
REMARK   99  A    between atoms: _254  and  _255
REMARK  100  A    between atoms: _258  and  _260
REMARK  101  A    between atoms: _260  and  _261
REMARK  102  A    between atoms: _260  and  _263
REMARK  103  A    between atoms: _263  and  _264
REMARK  104  A    between atoms: _264  and  _265
REMARK  105  A    between atoms: _265  and  _266
REMARK  106  A    between atoms: _266  and  _267
REMARK  107  A    between atoms: _271  and  _273
REMARK  108  A    between atoms: _273  and  _274
REMARK  109  A    between atoms: _273  and  _276
REMARK  110  A    between atoms: _279  and  _281
REMARK  111  A    between atoms: _281  and  _282
REMARK  112  A    between atoms: _281  and  _284
REMARK  113  A    between atoms: _284  and  _285
REMARK  114  A    between atoms: _287  and  _289
REMARK  115  A    between atoms: _289  and  _290
REMARK  116  A    between atoms: _289  and  _292
REMARK  117  A    between atoms: _295  and  _297
REMARK  118  A    between atoms: _297  and  _298
REMARK  119  A    between atoms: _300  and  _302
REMARK  120  A    between atoms: _302  and  _303
REMARK  121  A    between atoms: _306  and  _308
REMARK  122  A    between atoms: _308  and  _309
REMARK  123  A    between atoms: _308  and  _311
REMARK  124  A    between atoms: _311  and  _312
REMARK  125  A    between atoms: _315  and  _317
REMARK  126  A    between atoms: _317  and  _318
REMARK  127  A    between atoms: _317  and  _320
REMARK  128  A    between atoms: _323  and  _325
REMARK  129  A    between atoms: _325  and  _326
REMARK  130  A    between atoms: _325  and  _328
REMARK  131  A    between atoms: _328  and  _329
REMARK  132  A    between atoms: _332  and  _334
REMARK  133  A    between atoms: _334  and  _335
REMARK  134  A    between atoms: _338  and  _340
REMARK  135  A    between atoms: _340  and  _341
REMARK  136  A    between atoms: _340  and  _343
REMARK  137  A    between atoms: _343  and  _344
REMARK  138  A    between atoms: _344  and  _345
REMARK  139  A    between atoms: _345  and  _346
REMARK  140  A    between atoms: _355  and  _357
REMARK  141  A    between atoms: _357  and  _358
REMARK  142  A    between atoms: _357  and  _360
REMARK  143  A    between atoms: _360  and  _361
REMARK  144  A    between atoms: _361  and  _362
REMARK  145  A    between atoms: _365  and  _367
REMARK  146  A    between atoms: _367  and  _368
REMARK  147  A    between atoms: _367  and  _370
REMARK  148  A    between atoms: _370  and  _371
REMARK  149  A    between atoms: _371  and  _372
REMARK  150  A    between atoms: _375  and  _377
REMARK  151  A    between atoms: _377  and  _378
REMARK  152  A    between atoms: _377  and  _380
REMARK  153  A    between atoms: _380  and  _381
REMARK  154  A    between atoms: _384  and  _386
REMARK  155  A    between atoms: _386  and  _387
REMARK  156  A    between atoms: _386  and  _389
REMARK  157  A    between atoms: _389  and  _390
REMARK  158  A    between atoms: _390  and  _391
REMARK  159  A    between atoms: _391  and  _392
REMARK  160  A    between atoms: _401  and  _403
REMARK  161  A    between atoms: _403  and  _404
REMARK  162  A    between atoms: _403  and  _406
REMARK  163  A    between atoms: _406  and  _407
REMARK  164  A    between atoms: _410  and  _412
REMARK  165  A    between atoms: _412  and  _413
REMARK  166  A    between atoms: _412  and  _415
REMARK  167  A    between atoms: _415  and  _416
REMARK  168  A    between atoms: _419  and  _421
REMARK  169  A    between atoms: _421  and  _422
REMARK  170  A    between atoms: _426  and  _427
REMARK  171  A    between atoms: _432  and  _434
REMARK  172  A    between atoms: _434  and  _435
REMARK  173  A    between atoms: _434  and  _437
REMARK  174  A    between atoms: _437  and  _438
REMARK  175  A    between atoms: _443  and  _445
REMARK  176  A    between atoms: _445  and  _446
REMARK  177  A    between atoms: _445  and  _448
REMARK  178  A    between atoms: _448  and  _449
REMARK  179  A    between atoms: _456  and  _457
REMARK  180  A    between atoms: _462  and  _464
REMARK  181  A    between atoms: _464  and  _465
REMARK  182  A    between atoms: _464  and  _467
REMARK  183  A    between atoms: _467  and  _468
REMARK  184  A    between atoms: _471  and  _473
REMARK  185  A    between atoms: _473  and  _474
REMARK  186  A    between atoms: _473  and  _476
REMARK  187  A    between atoms: _476  and  _477
REMARK  188  A    between atoms: _480  and  _482
REMARK  189  A    between atoms: _482  and  _483
REMARK  190  A    between atoms: _482  and  _485
REMARK  191  A    between atoms: _485  and  _486
REMARK  192  A    between atoms: _486  and  _487
REMARK  193  A    between atoms: _489  and  _491
REMARK  194  A    between atoms: _491  and  _492
REMARK  195  A    between atoms: _491  and  _494
REMARK  196  A    between atoms: _494  and  _495
REMARK  197  A    between atoms: _495  and  _496
REMARK  198  A    between atoms: _501  and  _503
REMARK  199  A    between atoms: _503  and  _504
REMARK  200  A    between atoms: _503  and  _506
REMARK  201  A    between atoms: _506  and  _507
REMARK  202  A    between atoms: _507  and  _508
REMARK  203  A    between atoms: _511  and  _513
REMARK  204  A    between atoms: _513  and  _514
REMARK  205  A    between atoms: _513  and  _516
REMARK  206  A    between atoms: _516  and  _517
REMARK  207  A    between atoms: _520  and  _522
REMARK  208  A    between atoms: _522  and  _523
REMARK  209  A    between atoms: _522  and  _525
REMARK  210  A    between atoms: _525  and  _526
REMARK  211  A    between atoms: _529  and  _531
REMARK  212  A    between atoms: _531  and  _532
REMARK  213  A    between atoms: _531  and  _534
REMARK  214  A    between atoms: _534  and  _535
REMARK  215  A    between atoms: _543  and  _544
REMARK  216  A    between atoms: _543  and  _546
REMARK  217  A    between atoms: _546  and  _547
REMARK  218  A    between atoms: _547  and  _548
REMARK  219  A    between atoms: _551  and  _553
REMARK  220  A    between atoms: _553  and  _554
REMARK  221  A    between atoms: _553  and  _556
REMARK  222  A    between atoms: _556  and  _557
REMARK  223  A    between atoms: _562  and  _564
REMARK  224  A    between atoms: _564  and  _565
REMARK  225  A    between atoms: _564  and  _567
REMARK  226  A    between atoms: _567  and  _568
REMARK  227  A    between atoms: _568  and  _569
REMARK  228  A    between atoms: _569  and  _570
REMARK  229  A    between atoms: _579  and  _581
REMARK  230  A    between atoms: _581  and  _582
REMARK  231  A    between atoms: _581  and  _584
REMARK  232  A    between atoms: _584  and  _585
REMARK  233  A    between atoms: _590  and  _591
REMARK  234  A    between atoms: _590  and  _593
REMARK  235  A    between atoms: _593  and  _594
REMARK  236  A    between atoms: _597  and  _599
REMARK  237  A    between atoms: _599  and  _600
REMARK  238  A    between atoms: _599  and  _602
REMARK  239  A    between atoms: _602  and  _603
REMARK  240  A    between atoms: _603  and  _604
REMARK  241  A    between atoms: _604  and  _605
REMARK  242  A    between atoms: _614  and  _616
REMARK  243  A    between atoms: _616  and  _617
REMARK                            x       y       z     vdW  Elec       q    Type
REMARK                         _______ _______ _______ _____ _____    ______ ____
ROOT
ATOM      1  O   HOH     1      88.193  -2.333 125.632  0.00  0.00    +0.000 OA
ENDROOT
TORSDOF 0
REMARK  Name = ../refined-set-2016/3upk/3upk_pocket.pdb
REMARK  243 active torsions:
REMARK  status: ('A' for Active; 'I' for Inactive)
REMARK    1  A    between atoms: _1  and  _3
REMARK    2  A    between atoms: _3  and  _4
REMARK    3  A    between atoms: _3  and  _6
REMARK    4  A    between atoms: _6  and  _7
REMARK    5  A    between atoms: _7  and  _8
REMARK    6  A    between atoms: _8  and  _9
REMARK    7  A    between atoms: _9  and  _10
REMARK    8  A    between atoms: _16  and  _17
REMARK    9  A    between atoms: _16  and  _19
REMARK   10  A    between atoms: _19  and  _20
REMARK   11  A    between atoms: _25  and  _27
REMARK   12  A    between atoms: _27  and  _28
REMARK   13  A    between atoms: _31  and  _33
REMARK   14  A    between atoms: _33  and  _34
REMARK   15  A    between atoms: _33  and  _36
REMARK   16  A    between atoms: _36  and  _37
REMARK   17  A    between atoms: _41  and  _42
REMARK   18  A    between atoms: _47  and  _49
REMARK   19  A    between atoms: _49  and  _50
REMARK   20  A    between atoms: _49  and  _52
REMARK   21  A    between atoms: _52  and  _53
REMARK   22  A    between atoms: _59  and  _61
REMARK   23  A    between atoms: _61  and  _62
REMARK   24  A    between atoms: _61  and  _64
REMARK   25  A    between atoms: _64  and  _65
REMARK   26  A    between atoms: _68  and  _70
REMARK   27  A    between atoms: _70  and  _71
REMARK   28  A    between atoms: _70  and  _73
REMARK   29  A    between atoms: _73  and  _74
REMARK   30  A    between atoms: _74  and  _75
REMARK   31  A    between atoms: _77  and  _79
REMARK   32  A    between atoms: _79  and  _80
REMARK   33  A    between atoms: _79  and  _82
REMARK   34  A    between atoms: _82  and  _83
REMARK   35  A    between atoms: _83  and  _84
REMARK   36  A    between atoms: _84  and  _85
REMARK   37  A    between atoms: _94  and  _96
REMARK   38  A    between atoms: _96  and  _97
REMARK   39  A    between atoms: _100  and  _102
REMARK   40  A    between atoms: _102  and  _103
REMARK   41  A    between atoms: _102  and  _105
REMARK   42  A    between atoms: _105  and  _106
REMARK   43  A    between atoms: _108  and  _110
REMARK   44  A    between atoms: _110  and  _111
REMARK   45  A    between atoms: _110  and  _113
REMARK   46  A    between atoms: _113  and  _114
REMARK   47  A    between atoms: _117  and  _119
REMARK   48  A    between atoms: _119  and  _120
REMARK   49  A    between atoms: _119  and  _122
REMARK   50  A    between atoms: _122  and  _123
REMARK   51  A    between atoms: _133  and  _135
REMARK   52  A    between atoms: _135  and  _136
REMARK   53  A    between atoms: _135  and  _138
REMARK   54  A    between atoms: _138  and  _139
REMARK   55  A    between atoms: _142  and  _144
REMARK   56  A    between atoms: _144  and  _145
REMARK   57  A    between atoms: _147  and  _149
REMARK   58  A    between atoms: _149  and  _150
REMARK   59  A    between atoms: _153  and  _155
REMARK   60  A    between atoms: _155  and  _156
REMARK   61  A    between atoms: _155  and  _158
REMARK   62  A    between atoms: _158  and  _159
REMARK   63  A    between atoms: _159  and  _160
REMARK   64  A    between atoms: _160  and  _161
REMARK   65  A    between atoms: _171  and  _172
REMARK   66  A    between atoms: _177  and  _179
REMARK   67  A    between atoms: _179  and  _180
REMARK   68  A    between atoms: _179  and  _182
REMARK   69  A    between atoms: _185  and  _187
REMARK   70  A    between atoms: _187  and  _188
REMARK   71  A    between atoms: _187  and  _190
REMARK   72  A    between atoms: _190  and  _191
REMARK   73  A    between atoms: _194  and  _196
REMARK   74  A    between atoms: _196  and  _197
REMARK   75  A    between atoms: _196  and  _199
REMARK   76  A    between atoms: _199  and  _200
REMARK   77  A    between atoms: _203  and  _205
REMARK   78  A    between atoms: _205  and  _206
REMARK   79  A    between atoms: _205  and  _208
REMARK   80  A    between atoms: _208  and  _209
REMARK   81  A    between atoms: _214  and  _216
REMARK   82  A    between atoms: _216  and  _217
REMARK   83  A    between atoms: _216  and  _219
REMARK   84  A    between atoms: _219  and  _220
REMARK   85  A    between atoms: _223  and  _225
REMARK   86  A    between atoms: _225  and  _226
REMARK   87  A    between atoms: _225  and  _228
REMARK   88  A    between atoms: _228  and  _229
REMARK   89  A    between atoms: _235  and  _237
REMARK   90  A    between atoms: _237  and  _238
REMARK   91  A    between atoms: _240  and  _242
REMARK   92  A    between atoms: _242  and  _243
REMARK   93  A    between atoms: _242  and  _245
REMARK   94  A    between atoms: _245  and  _246
REMARK   95  A    between atoms: _246  and  _247
REMARK   96  A    between atoms: _249  and  _251
REMARK   97  A    between atoms: _251  and  _252
REMARK   98  A    between atoms: _251  and  _254
REMARK   99  A    between atoms: _254  and  _255
REMARK  100  A    between atoms: _258  and  _260
REMARK  101  A    between atoms: _260  and  _261
REMARK  102  A    between atoms: _260  and  _263
REMARK  103  A    between atoms: _263  and  _264
REMARK  104  A    between atoms: _264  and  _265
REMARK  105  A    between atoms: _265  and  _266
REMARK  106  A    between atoms: _266  and  _267
REMARK  107  A    between atoms: _271  and  _273
REMARK  108  A    between atoms: _273  and  _274
REMARK  109  A    between atoms: _273  and  _276
REMARK  110  A    between atoms: _279  and  _281
REMARK  111  A    between atoms: _281  and  _282
REMARK  112  A    between atoms: _281  and  _284
REMARK  113  A    between atoms: _284  and  _285
REMARK  114  A    between atoms: _287  and  _289
REMARK  115  A    between atoms: _289  and  _290
REMARK  116  A    between atoms: _289  and  _292
REMARK  117  A    between atoms: _295  and  _297
REMARK  118  A    between atoms: _297  and  _298
REMARK  119  A    between atoms: _300  and  _302
REMARK  120  A    between atoms: _302  and  _303
REMARK  121  A    between atoms: _306  and  _308
REMARK  122  A    between atoms: _308  and  _309
REMARK  123  A    between atoms: _308  and  _311
REMARK  124  A    between atoms: _311  and  _312
REMARK  125  A    between atoms: _315  and  _317
REMARK  126  A    between atoms: _317  and  _318
REMARK  127  A    between atoms: _317  and  _320
REMARK  128  A    between atoms: _323  and  _325
REMARK  129  A    between atoms: _325  and  _326
REMARK  130  A    between atoms: _325  and  _328
REMARK  131  A    between atoms: _328  and  _329
REMARK  132  A    between atoms: _332  and  _334
REMARK  133  A    between atoms: _334  and  _335
REMARK  134  A    between atoms: _338  and  _340
REMARK  135  A    between atoms: _340  and  _341
REMARK  136  A    between atoms: _340  and  _343
REMARK  137  A    between atoms: _343  and  _344
REMARK  138  A    between atoms: _344  and  _345
REMARK  139  A    between atoms: _345  and  _346
REMARK  140  A    between atoms: _355  and  _357
REMARK  141  A    between atoms: _357  and  _358
REMARK  142  A    between atoms: _357  and  _360
REMARK  143  A    between atoms: _360  and  _361
REMARK  144  A    between atoms: _361  and  _362
REMARK  145  A    between atoms: _365  and  _367
REMARK  146  A    between atoms: _367  and  _368
REMARK  147  A    between atoms: _367  and  _370
REMARK  148  A    between atoms: _370  and  _371
REMARK  149  A    between atoms: _371  and  _372
REMARK  150  A    between atoms: _375  and  _377
REMARK  151  A    between atoms: _377  and  _378
REMARK  152  A    between atoms: _377  and  _380
REMARK  153  A    between atoms: _380  and  _381
REMARK  154  A    between atoms: _384  and  _386
REMARK  155  A    between atoms: _386  and  _387
REMARK  156  A    between atoms: _386  and  _389
REMARK  157  A    between atoms: _389  and  _390
REMARK  158  A    between atoms: _390  and  _391
REMARK  159  A    between atoms: _391  and  _392
REMARK  160  A    between atoms: _401  and  _403
REMARK  161  A    between atoms: _403  and  _404
REMARK  162  A    between atoms: _403  and  _406
REMARK  163  A    between atoms: _406  and  _407
REMARK  164  A    between atoms: _410  and  _412
REMARK  165  A    between atoms: _412  and  _413
REMARK  166  A    between atoms: _412  and  _415
REMARK  167  A    between atoms: _415  and  _416
REMARK  168  A    between atoms: _419  and  _421
REMARK  169  A    between atoms: _421  and  _422
REMARK  170  A    between atoms: _426  and  _427
REMARK  171  A    between atoms: _432  and  _434
REMARK  172  A    between atoms: _434  and  _435
REMARK  173  A    between atoms: _434  and  _437
REMARK  174  A    between atoms: _437  and  _438
REMARK  175  A    between atoms: _443  and  _445
REMARK  176  A    between atoms: _445  and  _446
REMARK  177  A    between atoms: _445  and  _448
REMARK  178  A    between atoms: _448  and  _449
REMARK  179  A    between atoms: _456  and  _457
REMARK  180  A    between atoms: _462  and  _464
REMARK  181  A    between atoms: _464  and  _465
REMARK  182  A    between atoms: _464  and  _467
REMARK  183  A    between atoms: _467  and  _468
REMARK  184  A    between atoms: _471  and  _473
REMARK  185  A    between atoms: _473  and  _474
REMARK  186  A    between atoms: _473  and  _476
REMARK  187  A    between atoms: _476  and  _477
REMARK  188  A    between atoms: _480  and  _482
REMARK  189  A    between atoms: _482  and  _483
REMARK  190  A    between atoms: _482  and  _485
REMARK  191  A    between atoms: _485  and  _486
REMARK  192  A    between atoms: _486  and  _487
REMARK  193  A    between atoms: _489  and  _491
REMARK  194  A    between atoms: _491  and  _492
REMARK  195  A    between atoms: _491  and  _494
REMARK  196  A    between atoms: _494  and  _495
REMARK  197  A    between atoms: _495  and  _496
REMARK  198  A    between atoms: _501  and  _503
REMARK  199  A    between atoms: _503  and  _504
REMARK  200  A    between atoms: _503  and  _506
REMARK  201  A    between atoms: _506  and  _507
REMARK  202  A    between atoms: _507  and  _508
REMARK  203  A    between atoms: _511  and  _513
REMARK  204  A    between atoms: _513  and  _514
REMARK  205  A    between atoms: _513  and  _516
REMARK  206  A    between atoms: _516  and  _517
REMARK  207  A    between atoms: _520  and  _522
REMARK  208  A    between atoms: _522  and  _523
REMARK  209  A    between atoms: _522  and  _525
REMARK  210  A    between atoms: _525  and  _526
REMARK  211  A    between atoms: _529  and  _531
REMARK  212  A    between atoms: _531  and  _532
REMARK  213  A    between atoms: _531  and  _534
REMARK  214  A    between atoms: _534  and  _535
REMARK  215  A    between atoms: _543  and  _544
REMARK  216  A    between atoms: _543  and  _546
REMARK  217  A    between atoms: _546  and  _547
REMARK  218  A    between atoms: _547  and  _548
REMARK  219  A    between atoms: _551  and  _553
REMARK  220  A    between atoms: _553  and  _554
REMARK  221  A    between atoms: _553  and  _556
REMARK  222  A    between atoms: _556  and  _557
REMARK  223  A    between atoms: _562  and  _564
REMARK  224  A    between atoms: _564  and  _565
REMARK  225  A    between atoms: _564  and  _567
REMARK  226  A    between atoms: _567  and  _568
REMARK  227  A    between atoms: _568  and  _569
REMARK  228  A    between atoms: _569  and  _570
REMARK  229  A    between atoms: _579  and  _581
REMARK  230  A    between atoms: _581  and  _582
REMARK  231  A    between atoms: _581  and  _584
REMARK  232  A    between atoms: _584  and  _585
REMARK  233  A    between atoms: _590  and  _591
REMARK  234  A    between atoms: _590  and  _593
REMARK  235  A    between atoms: _593  and  _594
REMARK  236  A    between atoms: _597  and  _599
REMARK  237  A    between atoms: _599  and  _600
REMARK  238  A    between atoms: _599  and  _602
REMARK  239  A    between atoms: _602  and  _603
REMARK  240  A    between atoms: _603  and  _604
REMARK  241  A    between atoms: _604  and  _605
REMARK  242  A    between atoms: _614  and  _616
REMARK  243  A    between atoms: _616  and  _617
REMARK                            x       y       z     vdW  Elec       q    Type
REMARK                         _______ _______ _______ _____ _____    ______ ____
ROOT
ATOM      1  O   HOH     1      85.764  -4.824 126.746  0.00  0.00    +0.000 OA
ENDROOT
TORSDOF 0
REMARK  Name = ../refined-set-2016/3upk/3upk_pocket.pdb
REMARK  243 active torsions:
REMARK  status: ('A' for Active; 'I' for Inactive)
REMARK    1  A    between atoms: _1  and  _3
REMARK    2  A    between atoms: _3  and  _4
REMARK    3  A    between atoms: _3  and  _6
REMARK    4  A    between atoms: _6  and  _7
REMARK    5  A    between atoms: _7  and  _8
REMARK    6  A    between atoms: _8  and  _9
REMARK    7  A    between atoms: _9  and  _10
REMARK    8  A    between atoms: _16  and  _17
REMARK    9  A    between atoms: _16  and  _19
REMARK   10  A    between atoms: _19  and  _20
REMARK   11  A    between atoms: _25  and  _27
REMARK   12  A    between atoms: _27  and  _28
REMARK   13  A    between atoms: _31  and  _33
REMARK   14  A    between atoms: _33  and  _34
REMARK   15  A    between atoms: _33  and  _36
REMARK   16  A    between atoms: _36  and  _37
REMARK   17  A    between atoms: _41  and  _42
REMARK   18  A    between atoms: _47  and  _49
REMARK   19  A    between atoms: _49  and  _50
REMARK   20  A    between atoms: _49  and  _52
REMARK   21  A    between atoms: _52  and  _53
REMARK   22  A    between atoms: _59  and  _61
REMARK   23  A    between atoms: _61  and  _62
REMARK   24  A    between atoms: _61  and  _64
REMARK   25  A    between atoms: _64  and  _65
REMARK   26  A    between atoms: _68  and  _70
REMARK   27  A    between atoms: _70  and  _71
REMARK   28  A    between atoms: _70  and  _73
REMARK   29  A    between atoms: _73  and  _74
REMARK   30  A    between atoms: _74  and  _75
REMARK   31  A    between atoms: _77  and  _79
REMARK   32  A    between atoms: _79  and  _80
REMARK   33  A    between atoms: _79  and  _82
REMARK   34  A    between atoms: _82  and  _83
REMARK   35  A    between atoms: _83  and  _84
REMARK   36  A    between atoms: _84  and  _85
REMARK   37  A    between atoms: _94  and  _96
REMARK   38  A    between atoms: _96  and  _97
REMARK   39  A    between atoms: _100  and  _102
REMARK   40  A    between atoms: _102  and  _103
REMARK   41  A    between atoms: _102  and  _105
REMARK   42  A    between atoms: _105  and  _106
REMARK   43  A    between atoms: _108  and  _110
REMARK   44  A    between atoms: _110  and  _111
REMARK   45  A    between atoms: _110  and  _113
REMARK   46  A    between atoms: _113  and  _114
REMARK   47  A    between atoms: _117  and  _119
REMARK   48  A    between atoms: _119  and  _120
REMARK   49  A    between atoms: _119  and  _122
REMARK   50  A    between atoms: _122  and  _123
REMARK   51  A    between atoms: _133  and  _135
REMARK   52  A    between atoms: _135  and  _136
REMARK   53  A    between atoms: _135  and  _138
REMARK   54  A    between atoms: _138  and  _139
REMARK   55  A    between atoms: _142  and  _144
REMARK   56  A    between atoms: _144  and  _145
REMARK   57  A    between atoms: _147  and  _149
REMARK   58  A    between atoms: _149  and  _150
REMARK   59  A    between atoms: _153  and  _155
REMARK   60  A    between atoms: _155  and  _156
REMARK   61  A    between atoms: _155  and  _158
REMARK   62  A    between atoms: _158  and  _159
REMARK   63  A    between atoms: _159  and  _160
REMARK   64  A    between atoms: _160  and  _161
REMARK   65  A    between atoms: _171  and  _172
REMARK   66  A    between atoms: _177  and  _179
REMARK   67  A    between atoms: _179  and  _180
REMARK   68  A    between atoms: _179  and  _182
REMARK   69  A    between atoms: _185  and  _187
REMARK   70  A    between atoms: _187  and  _188
REMARK   71  A    between atoms: _187  and  _190
REMARK   72  A    between atoms: _190  and  _191
REMARK   73  A    between atoms: _194  and  _196
REMARK   74  A    between atoms: _196  and  _197
REMARK   75  A    between atoms: _196  and  _199
REMARK   76  A    between atoms: _199  and  _200
REMARK   77  A    between atoms: _203  and  _205
REMARK   78  A    between atoms: _205  and  _206
REMARK   79  A    between atoms: _205  and  _208
REMARK   80  A    between atoms: _208  and  _209
REMARK   81  A    between atoms: _214  and  _216
REMARK   82  A    between atoms: _216  and  _217
REMARK   83  A    between atoms: _216  and  _219
REMARK   84  A    between atoms: _219  and  _220
REMARK   85  A    between atoms: _223  and  _225
REMARK   86  A    between atoms: _225  and  _226
REMARK   87  A    between atoms: _225  and  _228
REMARK   88  A    between atoms: _228  and  _229
REMARK   89  A    between atoms: _235  and  _237
REMARK   90  A    between atoms: _237  and  _238
REMARK   91  A    between atoms: _240  and  _242
REMARK   92  A    between atoms: _242  and  _243
REMARK   93  A    between atoms: _242  and  _245
REMARK   94  A    between atoms: _245  and  _246
REMARK   95  A    between atoms: _246  and  _247
REMARK   96  A    between atoms: _249  and  _251
REMARK   97  A    between atoms: _251  and  _252
REMARK   98  A    between atoms: _251  and  _254
REMARK   99  A    between atoms: _254  and  _255
REMARK  100  A    between atoms: _258  and  _260
REMARK  101  A    between atoms: _260  and  _261
REMARK  102  A    between atoms: _260  and  _263
REMARK  103  A    between atoms: _263  and  _264
REMARK  104  A    between atoms: _264  and  _265
REMARK  105  A    between atoms: _265  and  _266
REMARK  106  A    between atoms: _266  and  _267
REMARK  107  A    between atoms: _271  and  _273
REMARK  108  A    between atoms: _273  and  _274
REMARK  109  A    between atoms: _273  and  _276
REMARK  110  A    between atoms: _279  and  _281
REMARK  111  A    between atoms: _281  and  _282
REMARK  112  A    between atoms: _281  and  _284
REMARK  113  A    between atoms: _284  and  _285
REMARK  114  A    between atoms: _287  and  _289
REMARK  115  A    between atoms: _289  and  _290
REMARK  116  A    between atoms: _289  and  _292
REMARK  117  A    between atoms: _295  and  _297
REMARK  118  A    between atoms: _297  and  _298
REMARK  119  A    between atoms: _300  and  _302
REMARK  120  A    between atoms: _302  and  _303
REMARK  121  A    between atoms: _306  and  _308
REMARK  122  A    between atoms: _308  and  _309
REMARK  123  A    between atoms: _308  and  _311
REMARK  124  A    between atoms: _311  and  _312
REMARK  125  A    between atoms: _315  and  _317
REMARK  126  A    between atoms: _317  and  _318
REMARK  127  A    between atoms: _317  and  _320
REMARK  128  A    between atoms: _323  and  _325
REMARK  129  A    between atoms: _325  and  _326
REMARK  130  A    between atoms: _325  and  _328
REMARK  131  A    between atoms: _328  and  _329
REMARK  132  A    between atoms: _332  and  _334
REMARK  133  A    between atoms: _334  and  _335
REMARK  134  A    between atoms: _338  and  _340
REMARK  135  A    between atoms: _340  and  _341
REMARK  136  A    between atoms: _340  and  _343
REMARK  137  A    between atoms: _343  and  _344
REMARK  138  A    between atoms: _344  and  _345
REMARK  139  A    between atoms: _345  and  _346
REMARK  140  A    between atoms: _355  and  _357
REMARK  141  A    between atoms: _357  and  _358
REMARK  142  A    between atoms: _357  and  _360
REMARK  143  A    between atoms: _360  and  _361
REMARK  144  A    between atoms: _361  and  _362
REMARK  145  A    between atoms: _365  and  _367
REMARK  146  A    between atoms: _367  and  _368
REMARK  147  A    between atoms: _367  and  _370
REMARK  148  A    between atoms: _370  and  _371
REMARK  149  A    between atoms: _371  and  _372
REMARK  150  A    between atoms: _375  and  _377
REMARK  151  A    between atoms: _377  and  _378
REMARK  152  A    between atoms: _377  and  _380
REMARK  153  A    between atoms: _380  and  _381
REMARK  154  A    between atoms: _384  and  _386
REMARK  155  A    between atoms: _386  and  _387
REMARK  156  A    between atoms: _386  and  _389
REMARK  157  A    between atoms: _389  and  _390
REMARK  158  A    between atoms: _390  and  _391
REMARK  159  A    between atoms: _391  and  _392
REMARK  160  A    between atoms: _401  and  _403
REMARK  161  A    between atoms: _403  and  _404
REMARK  162  A    between atoms: _403  and  _406
REMARK  163  A    between atoms: _406  and  _407
REMARK  164  A    between atoms: _410  and  _412
REMARK  165  A    between atoms: _412  and  _413
REMARK  166  A    between atoms: _412  and  _415
REMARK  167  A    between atoms: _415  and  _416
REMARK  168  A    between atoms: _419  and  _421
REMARK  169  A    between atoms: _421  and  _422
REMARK  170  A    between atoms: _426  and  _427
REMARK  171  A    between atoms: _432  and  _434
REMARK  172  A    between atoms: _434  and  _435
REMARK  173  A    between atoms: _434  and  _437
REMARK  174  A    between atoms: _437  and  _438
REMARK  175  A    between atoms: _443  and  _445
REMARK  176  A    between atoms: _445  and  _446
REMARK  177  A    between atoms: _445  and  _448
REMARK  178  A    between atoms: _448  and  _449
REMARK  179  A    between atoms: _456  and  _457
REMARK  180  A    between atoms: _462  and  _464
REMARK  181  A    between atoms: _464  and  _465
REMARK  182  A    between atoms: _464  and  _467
REMARK  183  A    between atoms: _467  and  _468
REMARK  184  A    between atoms: _471  and  _473
REMARK  185  A    between atoms: _473  and  _474
REMARK  186  A    between atoms: _473  and  _476
REMARK  187  A    between atoms: _476  and  _477
REMARK  188  A    between atoms: _480  and  _482
REMARK  189  A    between atoms: _482  and  _483
REMARK  190  A    between atoms: _482  and  _485
REMARK  191  A    between atoms: _485  and  _486
REMARK  192  A    between atoms: _486  and  _487
REMARK  193  A    between atoms: _489  and  _491
REMARK  194  A    between atoms: _491  and  _492
REMARK  195  A    between atoms: _491  and  _494
REMARK  196  A    between atoms: _494  and  _495
REMARK  197  A    between atoms: _495  and  _496
REMARK  198  A    between atoms: _501  and  _503
REMARK  199  A    between atoms: _503  and  _504
REMARK  200  A    between atoms: _503  and  _506
REMARK  201  A    between atoms: _506  and  _507
REMARK  202  A    between atoms: _507  and  _508
REMARK  203  A    between atoms: _511  and  _513
REMARK  204  A    between atoms: _513  and  _514
REMARK  205  A    between atoms: _513  and  _516
REMARK  206  A    between atoms: _516  and  _517
REMARK  207  A    between atoms: _520  and  _522
REMARK  208  A    between atoms: _522  and  _523
REMARK  209  A    between atoms: _522  and  _525
REMARK  210  A    between atoms: _525  and  _526
REMARK  211  A    between atoms: _529  and  _531
REMARK  212  A    between atoms: _531  and  _532
REMARK  213  A    between atoms: _531  and  _534
REMARK  214  A    between atoms: _534  and  _535
REMARK  215  A    between atoms: _543  and  _544
REMARK  216  A    between atoms: _543  and  _546
REMARK  217  A    between atoms: _546  and  _547
REMARK  218  A    between atoms: _547  and  _548
REMARK  219  A    between atoms: _551  and  _553
REMARK  220  A    between atoms: _553  and  _554
REMARK  221  A    between atoms: _553  and  _556
REMARK  222  A    between atoms: _556  and  _557
REMARK  223  A    between atoms: _562  and  _564
REMARK  224  A    between atoms: _564  and  _565
REMARK  225  A    between atoms: _564  and  _567
REMARK  226  A    between atoms: _567  and  _568
REMARK  227  A    between atoms: _568  and  _569
REMARK  228  A    between atoms: _569  and  _570
REMARK  229  A    between atoms: _579  and  _581
REMARK  230  A    between atoms: _581  and  _582
REMARK  231  A    between atoms: _581  and  _584
REMARK  232  A    between atoms: _584  and  _585
REMARK  233  A    between atoms: _590  and  _591
REMARK  234  A    between atoms: _590  and  _593
REMARK  235  A    between atoms: _593  and  _594
REMARK  236  A    between atoms: _597  and  _599
REMARK  237  A    between atoms: _599  and  _600
REMARK  238  A    between atoms: _599  and  _602
REMARK  239  A    between atoms: _602  and  _603
REMARK  240  A    between atoms: _603  and  _604
REMARK  241  A    between atoms: _604  and  _605
REMARK  242  A    between atoms: _614  and  _616
REMARK  243  A    between atoms: _616  and  _617
REMARK                            x       y       z     vdW  Elec       q    Type
REMARK                         _______ _______ _______ _____ _____    ______ ____
ROOT
ATOM      1  O   HOH     1      86.330  -1.738 129.752  0.00  0.00    +0.000 OA
ENDROOT
TORSDOF 0
REMARK  Name = ../refined-set-2016/3upk/3upk_pocket.pdb
REMARK  243 active torsions:
REMARK  status: ('A' for Active; 'I' for Inactive)
REMARK    1  A    between atoms: _1  and  _3
REMARK    2  A    between atoms: _3  and  _4
REMARK    3  A    between atoms: _3  and  _6
REMARK    4  A    between atoms: _6  and  _7
REMARK    5  A    between atoms: _7  and  _8
REMARK    6  A    between atoms: _8  and  _9
REMARK    7  A    between atoms: _9  and  _10
REMARK    8  A    between atoms: _16  and  _17
REMARK    9  A    between atoms: _16  and  _19
REMARK   10  A    between atoms: _19  and  _20
REMARK   11  A    between atoms: _25  and  _27
REMARK   12  A    between atoms: _27  and  _28
REMARK   13  A    between atoms: _31  and  _33
REMARK   14  A    between atoms: _33  and  _34
REMARK   15  A    between atoms: _33  and  _36
REMARK   16  A    between atoms: _36  and  _37
REMARK   17  A    between atoms: _41  and  _42
REMARK   18  A    between atoms: _47  and  _49
REMARK   19  A    between atoms: _49  and  _50
REMARK   20  A    between atoms: _49  and  _52
REMARK   21  A    between atoms: _52  and  _53
REMARK   22  A    between atoms: _59  and  _61
REMARK   23  A    between atoms: _61  and  _62
REMARK   24  A    between atoms: _61  and  _64
REMARK   25  A    between atoms: _64  and  _65
REMARK   26  A    between atoms: _68  and  _70
REMARK   27  A    between atoms: _70  and  _71
REMARK   28  A    between atoms: _70  and  _73
REMARK   29  A    between atoms: _73  and  _74
REMARK   30  A    between atoms: _74  and  _75
REMARK   31  A    between atoms: _77  and  _79
REMARK   32  A    between atoms: _79  and  _80
REMARK   33  A    between atoms: _79  and  _82
REMARK   34  A    between atoms: _82  and  _83
REMARK   35  A    between atoms: _83  and  _84
REMARK   36  A    between atoms: _84  and  _85
REMARK   37  A    between atoms: _94  and  _96
REMARK   38  A    between atoms: _96  and  _97
REMARK   39  A    between atoms: _100  and  _102
REMARK   40  A    between atoms: _102  and  _103
REMARK   41  A    between atoms: _102  and  _105
REMARK   42  A    between atoms: _105  and  _106
REMARK   43  A    between atoms: _108  and  _110
REMARK   44  A    between atoms: _110  and  _111
REMARK   45  A    between atoms: _110  and  _113
REMARK   46  A    between atoms: _113  and  _114
REMARK   47  A    between atoms: _117  and  _119
REMARK   48  A    between atoms: _119  and  _120
REMARK   49  A    between atoms: _119  and  _122
REMARK   50  A    between atoms: _122  and  _123
REMARK   51  A    between atoms: _133  and  _135
REMARK   52  A    between atoms: _135  and  _136
REMARK   53  A    between atoms: _135  and  _138
REMARK   54  A    between atoms: _138  and  _139
REMARK   55  A    between atoms: _142  and  _144
REMARK   56  A    between atoms: _144  and  _145
REMARK   57  A    between atoms: _147  and  _149
REMARK   58  A    between atoms: _149  and  _150
REMARK   59  A    between atoms: _153  and  _155
REMARK   60  A    between atoms: _155  and  _156
REMARK   61  A    between atoms: _155  and  _158
REMARK   62  A    between atoms: _158  and  _159
REMARK   63  A    between atoms: _159  and  _160
REMARK   64  A    between atoms: _160  and  _161
REMARK   65  A    between atoms: _171  and  _172
REMARK   66  A    between atoms: _177  and  _179
REMARK   67  A    between atoms: _179  and  _180
REMARK   68  A    between atoms: _179  and  _182
REMARK   69  A    between atoms: _185  and  _187
REMARK   70  A    between atoms: _187  and  _188
REMARK   71  A    between atoms: _187  and  _190
REMARK   72  A    between atoms: _190  and  _191
REMARK   73  A    between atoms: _194  and  _196
REMARK   74  A    between atoms: _196  and  _197
REMARK   75  A    between atoms: _196  and  _199
REMARK   76  A    between atoms: _199  and  _200
REMARK   77  A    between atoms: _203  and  _205
REMARK   78  A    between atoms: _205  and  _206
REMARK   79  A    between atoms: _205  and  _208
REMARK   80  A    between atoms: _208  and  _209
REMARK   81  A    between atoms: _214  and  _216
REMARK   82  A    between atoms: _216  and  _217
REMARK   83  A    between atoms: _216  and  _219
REMARK   84  A    between atoms: _219  and  _220
REMARK   85  A    between atoms: _223  and  _225
REMARK   86  A    between atoms: _225  and  _226
REMARK   87  A    between atoms: _225  and  _228
REMARK   88  A    between atoms: _228  and  _229
REMARK   89  A    between atoms: _235  and  _237
REMARK   90  A    between atoms: _237  and  _238
REMARK   91  A    between atoms: _240  and  _242
REMARK   92  A    between atoms: _242  and  _243
REMARK   93  A    between atoms: _242  and  _245
REMARK   94  A    between atoms: _245  and  _246
REMARK   95  A    between atoms: _246  and  _247
REMARK   96  A    between atoms: _249  and  _251
REMARK   97  A    between atoms: _251  and  _252
REMARK   98  A    between atoms: _251  and  _254
REMARK   99  A    between atoms: _254  and  _255
REMARK  100  A    between atoms: _258  and  _260
REMARK  101  A    between atoms: _260  and  _261
REMARK  102  A    between atoms: _260  and  _263
REMARK  103  A    between atoms: _263  and  _264
REMARK  104  A    between atoms: _264  and  _265
REMARK  105  A    between atoms: _265  and  _266
REMARK  106  A    between atoms: _266  and  _267
REMARK  107  A    between atoms: _271  and  _273
REMARK  108  A    between atoms: _273  and  _274
REMARK  109  A    between atoms: _273  and  _276
REMARK  110  A    between atoms: _279  and  _281
REMARK  111  A    between atoms: _281  and  _282
REMARK  112  A    between atoms: _281  and  _284
REMARK  113  A    between atoms: _284  and  _285
REMARK  114  A    between atoms: _287  and  _289
REMARK  115  A    between atoms: _289  and  _290
REMARK  116  A    between atoms: _289  and  _292
REMARK  117  A    between atoms: _295  and  _297
REMARK  118  A    between atoms: _297  and  _298
REMARK  119  A    between atoms: _300  and  _302
REMARK  120  A    between atoms: _302  and  _303
REMARK  121  A    between atoms: _306  and  _308
REMARK  122  A    between atoms: _308  and  _309
REMARK  123  A    between atoms: _308  and  _311
REMARK  124  A    between atoms: _311  and  _312
REMARK  125  A    between atoms: _315  and  _317
REMARK  126  A    between atoms: _317  and  _318
REMARK  127  A    between atoms: _317  and  _320
REMARK  128  A    between atoms: _323  and  _325
REMARK  129  A    between atoms: _325  and  _326
REMARK  130  A    between atoms: _325  and  _328
REMARK  131  A    between atoms: _328  and  _329
REMARK  132  A    between atoms: _332  and  _334
REMARK  133  A    between atoms: _334  and  _335
REMARK  134  A    between atoms: _338  and  _340
REMARK  135  A    between atoms: _340  and  _341
REMARK  136  A    between atoms: _340  and  _343
REMARK  137  A    between atoms: _343  and  _344
REMARK  138  A    between atoms: _344  and  _345
REMARK  139  A    between atoms: _345  and  _346
REMARK  140  A    between atoms: _355  and  _357
REMARK  141  A    between atoms: _357  and  _358
REMARK  142  A    between atoms: _357  and  _360
REMARK  143  A    between atoms: _360  and  _361
REMARK  144  A    between atoms: _361  and  _362
REMARK  145  A    between atoms: _365  and  _367
REMARK  146  A    between atoms: _367  and  _368
REMARK  147  A    between atoms: _367  and  _370
REMARK  148  A    between atoms: _370  and  _371
REMARK  149  A    between atoms: _371  and  _372
REMARK  150  A    between atoms: _375  and  _377
REMARK  151  A    between atoms: _377  and  _378
REMARK  152  A    between atoms: _377  and  _380
REMARK  153  A    between atoms: _380  and  _381
REMARK  154  A    between atoms: _384  and  _386
REMARK  155  A    between atoms: _386  and  _387
REMARK  156  A    between atoms: _386  and  _389
REMARK  157  A    between atoms: _389  and  _390
REMARK  158  A    between atoms: _390  and  _391
REMARK  159  A    between atoms: _391  and  _392
REMARK  160  A    between atoms: _401  and  _403
REMARK  161  A    between atoms: _403  and  _404
REMARK  162  A    between atoms: _403  and  _406
REMARK  163  A    between atoms: _406  and  _407
REMARK  164  A    between atoms: _410  and  _412
REMARK  165  A    between atoms: _412  and  _413
REMARK  166  A    between atoms: _412  and  _415
REMARK  167  A    between atoms: _415  and  _416
REMARK  168  A    between atoms: _419  and  _421
REMARK  169  A    between atoms: _421  and  _422
REMARK  170  A    between atoms: _426  and  _427
REMARK  171  A    between atoms: _432  and  _434
REMARK  172  A    between atoms: _434  and  _435
REMARK  173  A    between atoms: _434  and  _437
REMARK  174  A    between atoms: _437  and  _438
REMARK  175  A    between atoms: _443  and  _445
REMARK  176  A    between atoms: _445  and  _446
REMARK  177  A    between atoms: _445  and  _448
REMARK  178  A    between atoms: _448  and  _449
REMARK  179  A    between atoms: _456  and  _457
REMARK  180  A    between atoms: _462  and  _464
REMARK  181  A    between atoms: _464  and  _465
REMARK  182  A    between atoms: _464  and  _467
REMARK  183  A    between atoms: _467  and  _468
REMARK  184  A    between atoms: _471  and  _473
REMARK  185  A    between atoms: _473  and  _474
REMARK  186  A    between atoms: _473  and  _476
REMARK  187  A    between atoms: _476  and  _477
REMARK  188  A    between atoms: _480  and  _482
REMARK  189  A    between atoms: _482  and  _483
REMARK  190  A    between atoms: _482  and  _485
REMARK  191  A    between atoms: _485  and  _486
REMARK  192  A    between atoms: _486  and  _487
REMARK  193  A    between atoms: _489  and  _491
REMARK  194  A    between atoms: _491  and  _492
REMARK  195  A    between atoms: _491  and  _494
REMARK  196  A    between atoms: _494  and  _495
REMARK  197  A    between atoms: _495  and  _496
REMARK  198  A    between atoms: _501  and  _503
REMARK  199  A    between atoms: _503  and  _504
REMARK  200  A    between atoms: _503  and  _506
REMARK  201  A    between atoms: _506  and  _507
REMARK  202  A    between atoms: _507  and  _508
REMARK  203  A    between atoms: _511  and  _513
REMARK  204  A    between atoms: _513  and  _514
REMARK  205  A    between atoms: _513  and  _516
REMARK  206  A    between atoms: _516  and  _517
REMARK  207  A    between atoms: _520  and  _522
REMARK  208  A    between atoms: _522  and  _523
REMARK  209  A    between atoms: _522  and  _525
REMARK  210  A    between atoms: _525  and  _526
REMARK  211  A    between atoms: _529  and  _531
REMARK  212  A    between atoms: _531  and  _532
REMARK  213  A    between atoms: _531  and  _534
REMARK  214  A    between atoms: _534  and  _535
REMARK  215  A    between atoms: _543  and  _544
REMARK  216  A    between atoms: _543  and  _546
REMARK  217  A    between atoms: _546  and  _547
REMARK  218  A    between atoms: _547  and  _548
REMARK  219  A    between atoms: _551  and  _553
REMARK  220  A    between atoms: _553  and  _554
REMARK  221  A    between atoms: _553  and  _556
REMARK  222  A    between atoms: _556  and  _557
REMARK  223  A    between atoms: _562  and  _564
REMARK  224  A    between atoms: _564  and  _565
REMARK  225  A    between atoms: _564  and  _567
REMARK  226  A    between atoms: _567  and  _568
REMARK  227  A    between atoms: _568  and  _569
REMARK  228  A    between atoms: _569  and  _570
REMARK  229  A    between atoms: _579  and  _581
REMARK  230  A    between atoms: _581  and  _582
REMARK  231  A    between atoms: _581  and  _584
REMARK  232  A    between atoms: _584  and  _585
REMARK  233  A    between atoms: _590  and  _591
REMARK  234  A    between atoms: _590  and  _593
REMARK  235  A    between atoms: _593  and  _594
REMARK  236  A    between atoms: _597  and  _599
REMARK  237  A    between atoms: _599  and  _600
REMARK  238  A    between atoms: _599  and  _602
REMARK  239  A    between atoms: _602  and  _603
REMARK  240  A    between atoms: _603  and  _604
REMARK  241  A    between atoms: _604  and  _605
REMARK  242  A    between atoms: _614  and  _616
REMARK  243  A    between atoms: _616  and  _617
REMARK                            x       y       z     vdW  Elec       q    Type
REMARK                         _______ _______ _______ _____ _____    ______ ____
ROOT
ATOM      1  O   HOH     1      85.492   0.782 130.207  0.00  0.00    +0.000 OA
ENDROOT
TORSDOF 0
REMARK  Name = ../refined-set-2016/3upk/3upk_pocket.pdb
REMARK  243 active torsions:
REMARK  status: ('A' for Active; 'I' for Inactive)
REMARK    1  A    between atoms: _1  and  _3
REMARK    2  A    between atoms: _3  and  _4
REMARK    3  A    between atoms: _3  and  _6
REMARK    4  A    between atoms: _6  and  _7
REMARK    5  A    between atoms: _7  and  _8
REMARK    6  A    between atoms: _8  and  _9
REMARK    7  A    between atoms: _9  and  _10
REMARK    8  A    between atoms: _16  and  _17
REMARK    9  A    between atoms: _16  and  _19
REMARK   10  A    between atoms: _19  and  _20
REMARK   11  A    between atoms: _25  and  _27
REMARK   12  A    between atoms: _27  and  _28
REMARK   13  A    between atoms: _31  and  _33
REMARK   14  A    between atoms: _33  and  _34
REMARK   15  A    between atoms: _33  and  _36
REMARK   16  A    between atoms: _36  and  _37
REMARK   17  A    between atoms: _41  and  _42
REMARK   18  A    between atoms: _47  and  _49
REMARK   19  A    between atoms: _49  and  _50
REMARK   20  A    between atoms: _49  and  _52
REMARK   21  A    between atoms: _52  and  _53
REMARK   22  A    between atoms: _59  and  _61
REMARK   23  A    between atoms: _61  and  _62
REMARK   24  A    between atoms: _61  and  _64
REMARK   25  A    between atoms: _64  and  _65
REMARK   26  A    between atoms: _68  and  _70
REMARK   27  A    between atoms: _70  and  _71
REMARK   28  A    between atoms: _70  and  _73
REMARK   29  A    between atoms: _73  and  _74
REMARK   30  A    between atoms: _74  and  _75
REMARK   31  A    between atoms: _77  and  _79
REMARK   32  A    between atoms: _79  and  _80
REMARK   33  A    between atoms: _79  and  _82
REMARK   34  A    between atoms: _82  and  _83
REMARK   35  A    between atoms: _83  and  _84
REMARK   36  A    between atoms: _84  and  _85
REMARK   37  A    between atoms: _94  and  _96
REMARK   38  A    between atoms: _96  and  _97
REMARK   39  A    between atoms: _100  and  _102
REMARK   40  A    between atoms: _102  and  _103
REMARK   41  A    between atoms: _102  and  _105
REMARK   42  A    between atoms: _105  and  _106
REMARK   43  A    between atoms: _108  and  _110
REMARK   44  A    between atoms: _110  and  _111
REMARK   45  A    between atoms: _110  and  _113
REMARK   46  A    between atoms: _113  and  _114
REMARK   47  A    between atoms: _117  and  _119
REMARK   48  A    between atoms: _119  and  _120
REMARK   49  A    between atoms: _119  and  _122
REMARK   50  A    between atoms: _122  and  _123
REMARK   51  A    between atoms: _133  and  _135
REMARK   52  A    between atoms: _135  and  _136
REMARK   53  A    between atoms: _135  and  _138
REMARK   54  A    between atoms: _138  and  _139
REMARK   55  A    between atoms: _142  and  _144
REMARK   56  A    between atoms: _144  and  _145
REMARK   57  A    between atoms: _147  and  _149
REMARK   58  A    between atoms: _149  and  _150
REMARK   59  A    between atoms: _153  and  _155
REMARK   60  A    between atoms: _155  and  _156
REMARK   61  A    between atoms: _155  and  _158
REMARK   62  A    between atoms: _158  and  _159
REMARK   63  A    between atoms: _159  and  _160
REMARK   64  A    between atoms: _160  and  _161
REMARK   65  A    between atoms: _171  and  _172
REMARK   66  A    between atoms: _177  and  _179
REMARK   67  A    between atoms: _179  and  _180
REMARK   68  A    between atoms: _179  and  _182
REMARK   69  A    between atoms: _185  and  _187
REMARK   70  A    between atoms: _187  and  _188
REMARK   71  A    between atoms: _187  and  _190
REMARK   72  A    between atoms: _190  and  _191
REMARK   73  A    between atoms: _194  and  _196
REMARK   74  A    between atoms: _196  and  _197
REMARK   75  A    between atoms: _196  and  _199
REMARK   76  A    between atoms: _199  and  _200
REMARK   77  A    between atoms: _203  and  _205
REMARK   78  A    between atoms: _205  and  _206
REMARK   79  A    between atoms: _205  and  _208
REMARK   80  A    between atoms: _208  and  _209
REMARK   81  A    between atoms: _214  and  _216
REMARK   82  A    between atoms: _216  and  _217
REMARK   83  A    between atoms: _216  and  _219
REMARK   84  A    between atoms: _219  and  _220
REMARK   85  A    between atoms: _223  and  _225
REMARK   86  A    between atoms: _225  and  _226
REMARK   87  A    between atoms: _225  and  _228
REMARK   88  A    between atoms: _228  and  _229
REMARK   89  A    between atoms: _235  and  _237
REMARK   90  A    between atoms: _237  and  _238
REMARK   91  A    between atoms: _240  and  _242
REMARK   92  A    between atoms: _242  and  _243
REMARK   93  A    between atoms: _242  and  _245
REMARK   94  A    between atoms: _245  and  _246
REMARK   95  A    between atoms: _246  and  _247
REMARK   96  A    between atoms: _249  and  _251
REMARK   97  A    between atoms: _251  and  _252
REMARK   98  A    between atoms: _251  and  _254
REMARK   99  A    between atoms: _254  and  _255
REMARK  100  A    between atoms: _258  and  _260
REMARK  101  A    between atoms: _260  and  _261
REMARK  102  A    between atoms: _260  and  _263
REMARK  103  A    between atoms: _263  and  _264
REMARK  104  A    between atoms: _264  and  _265
REMARK  105  A    between atoms: _265  and  _266
REMARK  106  A    between atoms: _266  and  _267
REMARK  107  A    between atoms: _271  and  _273
REMARK  108  A    between atoms: _273  and  _274
REMARK  109  A    between atoms: _273  and  _276
REMARK  110  A    between atoms: _279  and  _281
REMARK  111  A    between atoms: _281  and  _282
REMARK  112  A    between atoms: _281  and  _284
REMARK  113  A    between atoms: _284  and  _285
REMARK  114  A    between atoms: _287  and  _289
REMARK  115  A    between atoms: _289  and  _290
REMARK  116  A    between atoms: _289  and  _292
REMARK  117  A    between atoms: _295  and  _297
REMARK  118  A    between atoms: _297  and  _298
REMARK  119  A    between atoms: _300  and  _302
REMARK  120  A    between atoms: _302  and  _303
REMARK  121  A    between atoms: _306  and  _308
REMARK  122  A    between atoms: _308  and  _309
REMARK  123  A    between atoms: _308  and  _311
REMARK  124  A    between atoms: _311  and  _312
REMARK  125  A    between atoms: _315  and  _317
REMARK  126  A    between atoms: _317  and  _318
REMARK  127  A    between atoms: _317  and  _320
REMARK  128  A    between atoms: _323  and  _325
REMARK  129  A    between atoms: _325  and  _326
REMARK  130  A    between atoms: _325  and  _328
REMARK  131  A    between atoms: _328  and  _329
REMARK  132  A    between atoms: _332  and  _334
REMARK  133  A    between atoms: _334  and  _335
REMARK  134  A    between atoms: _338  and  _340
REMARK  135  A    between atoms: _340  and  _341
REMARK  136  A    between atoms: _340  and  _343
REMARK  137  A    between atoms: _343  and  _344
REMARK  138  A    between atoms: _344  and  _345
REMARK  139  A    between atoms: _345  and  _346
REMARK  140  A    between atoms: _355  and  _357
REMARK  141  A    between atoms: _357  and  _358
REMARK  142  A    between atoms: _357  and  _360
REMARK  143  A    between atoms: _360  and  _361
REMARK  144  A    between atoms: _361  and  _362
REMARK  145  A    between atoms: _365  and  _367
REMARK  146  A    between atoms: _367  and  _368
REMARK  147  A    between atoms: _367  and  _370
REMARK  148  A    between atoms: _370  and  _371
REMARK  149  A    between atoms: _371  and  _372
REMARK  150  A    between atoms: _375  and  _377
REMARK  151  A    between atoms: _377  and  _378
REMARK  152  A    between atoms: _377  and  _380
REMARK  153  A    between atoms: _380  and  _381
REMARK  154  A    between atoms: _384  and  _386
REMARK  155  A    between atoms: _386  and  _387
REMARK  156  A    between atoms: _386  and  _389
REMARK  157  A    between atoms: _389  and  _390
REMARK  158  A    between atoms: _390  and  _391
REMARK  159  A    between atoms: _391  and  _392
REMARK  160  A    between atoms: _401  and  _403
REMARK  161  A    between atoms: _403  and  _404
REMARK  162  A    between atoms: _403  and  _406
REMARK  163  A    between atoms: _406  and  _407
REMARK  164  A    between atoms: _410  and  _412
REMARK  165  A    between atoms: _412  and  _413
REMARK  166  A    between atoms: _412  and  _415
REMARK  167  A    between atoms: _415  and  _416
REMARK  168  A    between atoms: _419  and  _421
REMARK  169  A    between atoms: _421  and  _422
REMARK  170  A    between atoms: _426  and  _427
REMARK  171  A    between atoms: _432  and  _434
REMARK  172  A    between atoms: _434  and  _435
REMARK  173  A    between atoms: _434  and  _437
REMARK  174  A    between atoms: _437  and  _438
REMARK  175  A    between atoms: _443  and  _445
REMARK  176  A    between atoms: _445  and  _446
REMARK  177  A    between atoms: _445  and  _448
REMARK  178  A    between atoms: _448  and  _449
REMARK  179  A    between atoms: _456  and  _457
REMARK  180  A    between atoms: _462  and  _464
REMARK  181  A    between atoms: _464  and  _465
REMARK  182  A    between atoms: _464  and  _467
REMARK  183  A    between atoms: _467  and  _468
REMARK  184  A    between atoms: _471  and  _473
REMARK  185  A    between atoms: _473  and  _474
REMARK  186  A    between atoms: _473  and  _476
REMARK  187  A    between atoms: _476  and  _477
REMARK  188  A    between atoms: _480  and  _482
REMARK  189  A    between atoms: _482  and  _483
REMARK  190  A    between atoms: _482  and  _485
REMARK  191  A    between atoms: _485  and  _486
REMARK  192  A    between atoms: _486  and  _487
REMARK  193  A    between atoms: _489  and  _491
REMARK  194  A    between atoms: _491  and  _492
REMARK  195  A    between atoms: _491  and  _494
REMARK  196  A    between atoms: _494  and  _495
REMARK  197  A    between atoms: _495  and  _496
REMARK  198  A    between atoms: _501  and  _503
REMARK  199  A    between atoms: _503  and  _504
REMARK  200  A    between atoms: _503  and  _506
REMARK  201  A    between atoms: _506  and  _507
REMARK  202  A    between atoms: _507  and  _508
REMARK  203  A    between atoms: _511  and  _513
REMARK  204  A    between atoms: _513  and  _514
REMARK  205  A    between atoms: _513  and  _516
REMARK  206  A    between atoms: _516  and  _517
REMARK  207  A    between atoms: _520  and  _522
REMARK  208  A    between atoms: _522  and  _523
REMARK  209  A    between atoms: _522  and  _525
REMARK  210  A    between atoms: _525  and  _526
REMARK  211  A    between atoms: _529  and  _531
REMARK  212  A    between atoms: _531  and  _532
REMARK  213  A    between atoms: _531  and  _534
REMARK  214  A    between atoms: _534  and  _535
REMARK  215  A    between atoms: _543  and  _544
REMARK  216  A    between atoms: _543  and  _546
REMARK  217  A    between atoms: _546  and  _547
REMARK  218  A    between atoms: _547  and  _548
REMARK  219  A    between atoms: _551  and  _553
REMARK  220  A    between atoms: _553  and  _554
REMARK  221  A    between atoms: _553  and  _556
REMARK  222  A    between atoms: _556  and  _557
REMARK  223  A    between atoms: _562  and  _564
REMARK  224  A    between atoms: _564  and  _565
REMARK  225  A    between atoms: _564  and  _567
REMARK  226  A    between atoms: _567  and  _568
REMARK  227  A    between atoms: _568  and  _569
REMARK  228  A    between atoms: _569  and  _570
REMARK  229  A    between atoms: _579  and  _581
REMARK  230  A    between atoms: _581  and  _582
REMARK  231  A    between atoms: _581  and  _584
REMARK  232  A    between atoms: _584  and  _585
REMARK  233  A    between atoms: _590  and  _591
REMARK  234  A    between atoms: _590  and  _593
REMARK  235  A    between atoms: _593  and  _594
REMARK  236  A    between atoms: _597  and  _599
REMARK  237  A    between atoms: _599  and  _600
REMARK  238  A    between atoms: _599  and  _602
REMARK  239  A    between atoms: _602  and  _603
REMARK  240  A    between atoms: _603  and  _604
REMARK  241  A    between atoms: _604  and  _605
REMARK  242  A    between atoms: _614  and  _616
REMARK  243  A    between atoms: _616  and  _617
REMARK                            x       y       z     vdW  Elec       q    Type
REMARK                         _______ _______ _______ _____ _____    ______ ____
ROOT
ATOM      1  O   HOH     1      85.172  -4.184 120.562  0.00  0.00    +0.000 OA
ENDROOT
TORSDOF 0
REMARK  Name = ../refined-set-2016/3upk/3upk_pocket.pdb
REMARK  243 active torsions:
REMARK  status: ('A' for Active; 'I' for Inactive)
REMARK    1  A    between atoms: _1  and  _3
REMARK    2  A    between atoms: _3  and  _4
REMARK    3  A    between atoms: _3  and  _6
REMARK    4  A    between atoms: _6  and  _7
REMARK    5  A    between atoms: _7  and  _8
REMARK    6  A    between atoms: _8  and  _9
REMARK    7  A    between atoms: _9  and  _10
REMARK    8  A    between atoms: _16  and  _17
REMARK    9  A    between atoms: _16  and  _19
REMARK   10  A    between atoms: _19  and  _20
REMARK   11  A    between atoms: _25  and  _27
REMARK   12  A    between atoms: _27  and  _28
REMARK   13  A    between atoms: _31  and  _33
REMARK   14  A    between atoms: _33  and  _34
REMARK   15  A    between atoms: _33  and  _36
REMARK   16  A    between atoms: _36  and  _37
REMARK   17  A    between atoms: _41  and  _42
REMARK   18  A    between atoms: _47  and  _49
REMARK   19  A    between atoms: _49  and  _50
REMARK   20  A    between atoms: _49  and  _52
REMARK   21  A    between atoms: _52  and  _53
REMARK   22  A    between atoms: _59  and  _61
REMARK   23  A    between atoms: _61  and  _62
REMARK   24  A    between atoms: _61  and  _64
REMARK   25  A    between atoms: _64  and  _65
REMARK   26  A    between atoms: _68  and  _70
REMARK   27  A    between atoms: _70  and  _71
REMARK   28  A    between atoms: _70  and  _73
REMARK   29  A    between atoms: _73  and  _74
REMARK   30  A    between atoms: _74  and  _75
REMARK   31  A    between atoms: _77  and  _79
REMARK   32  A    between atoms: _79  and  _80
REMARK   33  A    between atoms: _79  and  _82
REMARK   34  A    between atoms: _82  and  _83
REMARK   35  A    between atoms: _83  and  _84
REMARK   36  A    between atoms: _84  and  _85
REMARK   37  A    between atoms: _94  and  _96
REMARK   38  A    between atoms: _96  and  _97
REMARK   39  A    between atoms: _100  and  _102
REMARK   40  A    between atoms: _102  and  _103
REMARK   41  A    between atoms: _102  and  _105
REMARK   42  A    between atoms: _105  and  _106
REMARK   43  A    between atoms: _108  and  _110
REMARK   44  A    between atoms: _110  and  _111
REMARK   45  A    between atoms: _110  and  _113
REMARK   46  A    between atoms: _113  and  _114
REMARK   47  A    between atoms: _117  and  _119
REMARK   48  A    between atoms: _119  and  _120
REMARK   49  A    between atoms: _119  and  _122
REMARK   50  A    between atoms: _122  and  _123
REMARK   51  A    between atoms: _133  and  _135
REMARK   52  A    between atoms: _135  and  _136
REMARK   53  A    between atoms: _135  and  _138
REMARK   54  A    between atoms: _138  and  _139
REMARK   55  A    between atoms: _142  and  _144
REMARK   56  A    between atoms: _144  and  _145
REMARK   57  A    between atoms: _147  and  _149
REMARK   58  A    between atoms: _149  and  _150
REMARK   59  A    between atoms: _153  and  _155
REMARK   60  A    between atoms: _155  and  _156
REMARK   61  A    between atoms: _155  and  _158
REMARK   62  A    between atoms: _158  and  _159
REMARK   63  A    between atoms: _159  and  _160
REMARK   64  A    between atoms: _160  and  _161
REMARK   65  A    between atoms: _171  and  _172
REMARK   66  A    between atoms: _177  and  _179
REMARK   67  A    between atoms: _179  and  _180
REMARK   68  A    between atoms: _179  and  _182
REMARK   69  A    between atoms: _185  and  _187
REMARK   70  A    between atoms: _187  and  _188
REMARK   71  A    between atoms: _187  and  _190
REMARK   72  A    between atoms: _190  and  _191
REMARK   73  A    between atoms: _194  and  _196
REMARK   74  A    between atoms: _196  and  _197
REMARK   75  A    between atoms: _196  and  _199
REMARK   76  A    between atoms: _199  and  _200
REMARK   77  A    between atoms: _203  and  _205
REMARK   78  A    between atoms: _205  and  _206
REMARK   79  A    between atoms: _205  and  _208
REMARK   80  A    between atoms: _208  and  _209
REMARK   81  A    between atoms: _214  and  _216
REMARK   82  A    between atoms: _216  and  _217
REMARK   83  A    between atoms: _216  and  _219
REMARK   84  A    between atoms: _219  and  _220
REMARK   85  A    between atoms: _223  and  _225
REMARK   86  A    between atoms: _225  and  _226
REMARK   87  A    between atoms: _225  and  _228
REMARK   88  A    between atoms: _228  and  _229
REMARK   89  A    between atoms: _235  and  _237
REMARK   90  A    between atoms: _237  and  _238
REMARK   91  A    between atoms: _240  and  _242
REMARK   92  A    between atoms: _242  and  _243
REMARK   93  A    between atoms: _242  and  _245
REMARK   94  A    between atoms: _245  and  _246
REMARK   95  A    between atoms: _246  and  _247
REMARK   96  A    between atoms: _249  and  _251
REMARK   97  A    between atoms: _251  and  _252
REMARK   98  A    between atoms: _251  and  _254
REMARK   99  A    between atoms: _254  and  _255
REMARK  100  A    between atoms: _258  and  _260
REMARK  101  A    between atoms: _260  and  _261
REMARK  102  A    between atoms: _260  and  _263
REMARK  103  A    between atoms: _263  and  _264
REMARK  104  A    between atoms: _264  and  _265
REMARK  105  A    between atoms: _265  and  _266
REMARK  106  A    between atoms: _266  and  _267
REMARK  107  A    between atoms: _271  and  _273
REMARK  108  A    between atoms: _273  and  _274
REMARK  109  A    between atoms: _273  and  _276
REMARK  110  A    between atoms: _279  and  _281
REMARK  111  A    between atoms: _281  and  _282
REMARK  112  A    between atoms: _281  and  _284
REMARK  113  A    between atoms: _284  and  _285
REMARK  114  A    between atoms: _287  and  _289
REMARK  115  A    between atoms: _289  and  _290
REMARK  116  A    between atoms: _289  and  _292
REMARK  117  A    between atoms: _295  and  _297
REMARK  118  A    between atoms: _297  and  _298
REMARK  119  A    between atoms: _300  and  _302
REMARK  120  A    between atoms: _302  and  _303
REMARK  121  A    between atoms: _306  and  _308
REMARK  122  A    between atoms: _308  and  _309
REMARK  123  A    between atoms: _308  and  _311
REMARK  124  A    between atoms: _311  and  _312
REMARK  125  A    between atoms: _315  and  _317
REMARK  126  A    between atoms: _317  and  _318
REMARK  127  A    between atoms: _317  and  _320
REMARK  128  A    between atoms: _323  and  _325
REMARK  129  A    between atoms: _325  and  _326
REMARK  130  A    between atoms: _325  and  _328
REMARK  131  A    between atoms: _328  and  _329
REMARK  132  A    between atoms: _332  and  _334
REMARK  133  A    between atoms: _334  and  _335
REMARK  134  A    between atoms: _338  and  _340
REMARK  135  A    between atoms: _340  and  _341
REMARK  136  A    between atoms: _340  and  _343
REMARK  137  A    between atoms: _343  and  _344
REMARK  138  A    between atoms: _344  and  _345
REMARK  139  A    between atoms: _345  and  _346
REMARK  140  A    between atoms: _355  and  _357
REMARK  141  A    between atoms: _357  and  _358
REMARK  142  A    between atoms: _357  and  _360
REMARK  143  A    between atoms: _360  and  _361
REMARK  144  A    between atoms: _361  and  _362
REMARK  145  A    between atoms: _365  and  _367
REMARK  146  A    between atoms: _367  and  _368
REMARK  147  A    between atoms: _367  and  _370
REMARK  148  A    between atoms: _370  and  _371
REMARK  149  A    between atoms: _371  and  _372
REMARK  150  A    between atoms: _375  and  _377
REMARK  151  A    between atoms: _377  and  _378
REMARK  152  A    between atoms: _377  and  _380
REMARK  153  A    between atoms: _380  and  _381
REMARK  154  A    between atoms: _384  and  _386
REMARK  155  A    between atoms: _386  and  _387
REMARK  156  A    between atoms: _386  and  _389
REMARK  157  A    between atoms: _389  and  _390
REMARK  158  A    between atoms: _390  and  _391
REMARK  159  A    between atoms: _391  and  _392
REMARK  160  A    between atoms: _401  and  _403
REMARK  161  A    between atoms: _403  and  _404
REMARK  162  A    between atoms: _403  and  _406
REMARK  163  A    between atoms: _406  and  _407
REMARK  164  A    between atoms: _410  and  _412
REMARK  165  A    between atoms: _412  and  _413
REMARK  166  A    between atoms: _412  and  _415
REMARK  167  A    between atoms: _415  and  _416
REMARK  168  A    between atoms: _419  and  _421
REMARK  169  A    between atoms: _421  and  _422
REMARK  170  A    between atoms: _426  and  _427
REMARK  171  A    between atoms: _432  and  _434
REMARK  172  A    between atoms: _434  and  _435
REMARK  173  A    between atoms: _434  and  _437
REMARK  174  A    between atoms: _437  and  _438
REMARK  175  A    between atoms: _443  and  _445
REMARK  176  A    between atoms: _445  and  _446
REMARK  177  A    between atoms: _445  and  _448
REMARK  178  A    between atoms: _448  and  _449
REMARK  179  A    between atoms: _456  and  _457
REMARK  180  A    between atoms: _462  and  _464
REMARK  181  A    between atoms: _464  and  _465
REMARK  182  A    between atoms: _464  and  _467
REMARK  183  A    between atoms: _467  and  _468
REMARK  184  A    between atoms: _471  and  _473
REMARK  185  A    between atoms: _473  and  _474
REMARK  186  A    between atoms: _473  and  _476
REMARK  187  A    between atoms: _476  and  _477
REMARK  188  A    between atoms: _480  and  _482
REMARK  189  A    between atoms: _482  and  _483
REMARK  190  A    between atoms: _482  and  _485
REMARK  191  A    between atoms: _485  and  _486
REMARK  192  A    between atoms: _486  and  _487
REMARK  193  A    between atoms: _489  and  _491
REMARK  194  A    between atoms: _491  and  _492
REMARK  195  A    between atoms: _491  and  _494
REMARK  196  A    between atoms: _494  and  _495
REMARK  197  A    between atoms: _495  and  _496
REMARK  198  A    between atoms: _501  and  _503
REMARK  199  A    between atoms: _503  and  _504
REMARK  200  A    between atoms: _503  and  _506
REMARK  201  A    between atoms: _506  and  _507
REMARK  202  A    between atoms: _507  and  _508
REMARK  203  A    between atoms: _511  and  _513
REMARK  204  A    between atoms: _513  and  _514
REMARK  205  A    between atoms: _513  and  _516
REMARK  206  A    between atoms: _516  and  _517
REMARK  207  A    between atoms: _520  and  _522
REMARK  208  A    between atoms: _522  and  _523
REMARK  209  A    between atoms: _522  and  _525
REMARK  210  A    between atoms: _525  and  _526
REMARK  211  A    between atoms: _529  and  _531
REMARK  212  A    between atoms: _531  and  _532
REMARK  213  A    between atoms: _531  and  _534
REMARK  214  A    between atoms: _534  and  _535
REMARK  215  A    between atoms: _543  and  _544
REMARK  216  A    between atoms: _543  and  _546
REMARK  217  A    between atoms: _546  and  _547
REMARK  218  A    between atoms: _547  and  _548
REMARK  219  A    between atoms: _551  and  _553
REMARK  220  A    between atoms: _553  and  _554
REMARK  221  A    between atoms: _553  and  _556
REMARK  222  A    between atoms: _556  and  _557
REMARK  223  A    between atoms: _562  and  _564
REMARK  224  A    between atoms: _564  and  _565
REMARK  225  A    between atoms: _564  and  _567
REMARK  226  A    between atoms: _567  and  _568
REMARK  227  A    between atoms: _568  and  _569
REMARK  228  A    between atoms: _569  and  _570
REMARK  229  A    between atoms: _579  and  _581
REMARK  230  A    between atoms: _581  and  _582
REMARK  231  A    between atoms: _581  and  _584
REMARK  232  A    between atoms: _584  and  _585
REMARK  233  A    between atoms: _590  and  _591
REMARK  234  A    between atoms: _590  and  _593
REMARK  235  A    between atoms: _593  and  _594
REMARK  236  A    between atoms: _597  and  _599
REMARK  237  A    between atoms: _599  and  _600
REMARK  238  A    between atoms: _599  and  _602
REMARK  239  A    between atoms: _602  and  _603
REMARK  240  A    between atoms: _603  and  _604
REMARK  241  A    between atoms: _604  and  _605
REMARK  242  A    between atoms: _614  and  _616
REMARK  243  A    between atoms: _616  and  _617
REMARK                            x       y       z     vdW  Elec       q    Type
REMARK                         _______ _______ _______ _____ _____    ______ ____
ROOT
ATOM      1  O   HOH     1      87.952  -4.143 123.498  0.00  0.00    +0.000 OA
ENDROOT
TORSDOF 0
REMARK  Name = ../refined-set-2016/3upk/3upk_pocket.pdb
REMARK  243 active torsions:
REMARK  status: ('A' for Active; 'I' for Inactive)
REMARK    1  A    between atoms: _1  and  _3
REMARK    2  A    between atoms: _3  and  _4
REMARK    3  A    between atoms: _3  and  _6
REMARK    4  A    between atoms: _6  and  _7
REMARK    5  A    between atoms: _7  and  _8
REMARK    6  A    between atoms: _8  and  _9
REMARK    7  A    between atoms: _9  and  _10
REMARK    8  A    between atoms: _16  and  _17
REMARK    9  A    between atoms: _16  and  _19
REMARK   10  A    between atoms: _19  and  _20
REMARK   11  A    between atoms: _25  and  _27
REMARK   12  A    between atoms: _27  and  _28
REMARK   13  A    between atoms: _31  and  _33
REMARK   14  A    between atoms: _33  and  _34
REMARK   15  A    between atoms: _33  and  _36
REMARK   16  A    between atoms: _36  and  _37
REMARK   17  A    between atoms: _41  and  _42
REMARK   18  A    between atoms: _47  and  _49
REMARK   19  A    between atoms: _49  and  _50
REMARK   20  A    between atoms: _49  and  _52
REMARK   21  A    between atoms: _52  and  _53
REMARK   22  A    between atoms: _59  and  _61
REMARK   23  A    between atoms: _61  and  _62
REMARK   24  A    between atoms: _61  and  _64
REMARK   25  A    between atoms: _64  and  _65
REMARK   26  A    between atoms: _68  and  _70
REMARK   27  A    between atoms: _70  and  _71
REMARK   28  A    between atoms: _70  and  _73
REMARK   29  A    between atoms: _73  and  _74
REMARK   30  A    between atoms: _74  and  _75
REMARK   31  A    between atoms: _77  and  _79
REMARK   32  A    between atoms: _79  and  _80
REMARK   33  A    between atoms: _79  and  _82
REMARK   34  A    between atoms: _82  and  _83
REMARK   35  A    between atoms: _83  and  _84
REMARK   36  A    between atoms: _84  and  _85
REMARK   37  A    between atoms: _94  and  _96
REMARK   38  A    between atoms: _96  and  _97
REMARK   39  A    between atoms: _100  and  _102
REMARK   40  A    between atoms: _102  and  _103
REMARK   41  A    between atoms: _102  and  _105
REMARK   42  A    between atoms: _105  and  _106
REMARK   43  A    between atoms: _108  and  _110
REMARK   44  A    between atoms: _110  and  _111
REMARK   45  A    between atoms: _110  and  _113
REMARK   46  A    between atoms: _113  and  _114
REMARK   47  A    between atoms: _117  and  _119
REMARK   48  A    between atoms: _119  and  _120
REMARK   49  A    between atoms: _119  and  _122
REMARK   50  A    between atoms: _122  and  _123
REMARK   51  A    between atoms: _133  and  _135
REMARK   52  A    between atoms: _135  and  _136
REMARK   53  A    between atoms: _135  and  _138
REMARK   54  A    between atoms: _138  and  _139
REMARK   55  A    between atoms: _142  and  _144
REMARK   56  A    between atoms: _144  and  _145
REMARK   57  A    between atoms: _147  and  _149
REMARK   58  A    between atoms: _149  and  _150
REMARK   59  A    between atoms: _153  and  _155
REMARK   60  A    between atoms: _155  and  _156
REMARK   61  A    between atoms: _155  and  _158
REMARK   62  A    between atoms: _158  and  _159
REMARK   63  A    between atoms: _159  and  _160
REMARK   64  A    between atoms: _160  and  _161
REMARK   65  A    between atoms: _171  and  _172
REMARK   66  A    between atoms: _177  and  _179
REMARK   67  A    between atoms: _179  and  _180
REMARK   68  A    between atoms: _179  and  _182
REMARK   69  A    between atoms: _185  and  _187
REMARK   70  A    between atoms: _187  and  _188
REMARK   71  A    between atoms: _187  and  _190
REMARK   72  A    between atoms: _190  and  _191
REMARK   73  A    between atoms: _194  and  _196
REMARK   74  A    between atoms: _196  and  _197
REMARK   75  A    between atoms: _196  and  _199
REMARK   76  A    between atoms: _199  and  _200
REMARK   77  A    between atoms: _203  and  _205
REMARK   78  A    between atoms: _205  and  _206
REMARK   79  A    between atoms: _205  and  _208
REMARK   80  A    between atoms: _208  and  _209
REMARK   81  A    between atoms: _214  and  _216
REMARK   82  A    between atoms: _216  and  _217
REMARK   83  A    between atoms: _216  and  _219
REMARK   84  A    between atoms: _219  and  _220
REMARK   85  A    between atoms: _223  and  _225
REMARK   86  A    between atoms: _225  and  _226
REMARK   87  A    between atoms: _225  and  _228
REMARK   88  A    between atoms: _228  and  _229
REMARK   89  A    between atoms: _235  and  _237
REMARK   90  A    between atoms: _237  and  _238
REMARK   91  A    between atoms: _240  and  _242
REMARK   92  A    between atoms: _242  and  _243
REMARK   93  A    between atoms: _242  and  _245
REMARK   94  A    between atoms: _245  and  _246
REMARK   95  A    between atoms: _246  and  _247
REMARK   96  A    between atoms: _249  and  _251
REMARK   97  A    between atoms: _251  and  _252
REMARK   98  A    between atoms: _251  and  _254
REMARK   99  A    between atoms: _254  and  _255
REMARK  100  A    between atoms: _258  and  _260
REMARK  101  A    between atoms: _260  and  _261
REMARK  102  A    between atoms: _260  and  _263
REMARK  103  A    between atoms: _263  and  _264
REMARK  104  A    between atoms: _264  and  _265
REMARK  105  A    between atoms: _265  and  _266
REMARK  106  A    between atoms: _266  and  _267
REMARK  107  A    between atoms: _271  and  _273
REMARK  108  A    between atoms: _273  and  _274
REMARK  109  A    between atoms: _273  and  _276
REMARK  110  A    between atoms: _279  and  _281
REMARK  111  A    between atoms: _281  and  _282
REMARK  112  A    between atoms: _281  and  _284
REMARK  113  A    between atoms: _284  and  _285
REMARK  114  A    between atoms: _287  and  _289
REMARK  115  A    between atoms: _289  and  _290
REMARK  116  A    between atoms: _289  and  _292
REMARK  117  A    between atoms: _295  and  _297
REMARK  118  A    between atoms: _297  and  _298
REMARK  119  A    between atoms: _300  and  _302
REMARK  120  A    between atoms: _302  and  _303
REMARK  121  A    between atoms: _306  and  _308
REMARK  122  A    between atoms: _308  and  _309
REMARK  123  A    between atoms: _308  and  _311
REMARK  124  A    between atoms: _311  and  _312
REMARK  125  A    between atoms: _315  and  _317
REMARK  126  A    between atoms: _317  and  _318
REMARK  127  A    between atoms: _317  and  _320
REMARK  128  A    between atoms: _323  and  _325
REMARK  129  A    between atoms: _325  and  _326
REMARK  130  A    between atoms: _325  and  _328
REMARK  131  A    between atoms: _328  and  _329
REMARK  132  A    between atoms: _332  and  _334
REMARK  133  A    between atoms: _334  and  _335
REMARK  134  A    between atoms: _338  and  _340
REMARK  135  A    between atoms: _340  and  _341
REMARK  136  A    between atoms: _340  and  _343
REMARK  137  A    between atoms: _343  and  _344
REMARK  138  A    between atoms: _344  and  _345
REMARK  139  A    between atoms: _345  and  _346
REMARK  140  A    between atoms: _355  and  _357
REMARK  141  A    between atoms: _357  and  _358
REMARK  142  A    between atoms: _357  and  _360
REMARK  143  A    between atoms: _360  and  _361
REMARK  144  A    between atoms: _361  and  _362
REMARK  145  A    between atoms: _365  and  _367
REMARK  146  A    between atoms: _367  and  _368
REMARK  147  A    between atoms: _367  and  _370
REMARK  148  A    between atoms: _370  and  _371
REMARK  149  A    between atoms: _371  and  _372
REMARK  150  A    between atoms: _375  and  _377
REMARK  151  A    between atoms: _377  and  _378
REMARK  152  A    between atoms: _377  and  _380
REMARK  153  A    between atoms: _380  and  _381
REMARK  154  A    between atoms: _384  and  _386
REMARK  155  A    between atoms: _386  and  _387
REMARK  156  A    between atoms: _386  and  _389
REMARK  157  A    between atoms: _389  and  _390
REMARK  158  A    between atoms: _390  and  _391
REMARK  159  A    between atoms: _391  and  _392
REMARK  160  A    between atoms: _401  and  _403
REMARK  161  A    between atoms: _403  and  _404
REMARK  162  A    between atoms: _403  and  _406
REMARK  163  A    between atoms: _406  and  _407
REMARK  164  A    between atoms: _410  and  _412
REMARK  165  A    between atoms: _412  and  _413
REMARK  166  A    between atoms: _412  and  _415
REMARK  167  A    between atoms: _415  and  _416
REMARK  168  A    between atoms: _419  and  _421
REMARK  169  A    between atoms: _421  and  _422
REMARK  170  A    between atoms: _426  and  _427
REMARK  171  A    between atoms: _432  and  _434
REMARK  172  A    between atoms: _434  and  _435
REMARK  173  A    between atoms: _434  and  _437
REMARK  174  A    between atoms: _437  and  _438
REMARK  175  A    between atoms: _443  and  _445
REMARK  176  A    between atoms: _445  and  _446
REMARK  177  A    between atoms: _445  and  _448
REMARK  178  A    between atoms: _448  and  _449
REMARK  179  A    between atoms: _456  and  _457
REMARK  180  A    between atoms: _462  and  _464
REMARK  181  A    between atoms: _464  and  _465
REMARK  182  A    between atoms: _464  and  _467
REMARK  183  A    between atoms: _467  and  _468
REMARK  184  A    between atoms: _471  and  _473
REMARK  185  A    between atoms: _473  and  _474
REMARK  186  A    between atoms: _473  and  _476
REMARK  187  A    between atoms: _476  and  _477
REMARK  188  A    between atoms: _480  and  _482
REMARK  189  A    between atoms: _482  and  _483
REMARK  190  A    between atoms: _482  and  _485
REMARK  191  A    between atoms: _485  and  _486
REMARK  192  A    between atoms: _486  and  _487
REMARK  193  A    between atoms: _489  and  _491
REMARK  194  A    between atoms: _491  and  _492
REMARK  195  A    between atoms: _491  and  _494
REMARK  196  A    between atoms: _494  and  _495
REMARK  197  A    between atoms: _495  and  _496
REMARK  198  A    between atoms: _501  and  _503
REMARK  199  A    between atoms: _503  and  _504
REMARK  200  A    between atoms: _503  and  _506
REMARK  201  A    between atoms: _506  and  _507
REMARK  202  A    between atoms: _507  and  _508
REMARK  203  A    between atoms: _511  and  _513
REMARK  204  A    between atoms: _513  and  _514
REMARK  205  A    between atoms: _513  and  _516
REMARK  206  A    between atoms: _516  and  _517
REMARK  207  A    between atoms: _520  and  _522
REMARK  208  A    between atoms: _522  and  _523
REMARK  209  A    between atoms: _522  and  _525
REMARK  210  A    between atoms: _525  and  _526
REMARK  211  A    between atoms: _529  and  _531
REMARK  212  A    between atoms: _531  and  _532
REMARK  213  A    between atoms: _531  and  _534
REMARK  214  A    between atoms: _534  and  _535
REMARK  215  A    between atoms: _543  and  _544
REMARK  216  A    between atoms: _543  and  _546
REMARK  217  A    between atoms: _546  and  _547
REMARK  218  A    between atoms: _547  and  _548
REMARK  219  A    between atoms: _551  and  _553
REMARK  220  A    between atoms: _553  and  _554
REMARK  221  A    between atoms: _553  and  _556
REMARK  222  A    between atoms: _556  and  _557
REMARK  223  A    between atoms: _562  and  _564
REMARK  224  A    between atoms: _564  and  _565
REMARK  225  A    between atoms: _564  and  _567
REMARK  226  A    between atoms: _567  and  _568
REMARK  227  A    between atoms: _568  and  _569
REMARK  228  A    between atoms: _569  and  _570
REMARK  229  A    between atoms: _579  and  _581
REMARK  230  A    between atoms: _581  and  _582
REMARK  231  A    between atoms: _581  and  _584
REMARK  232  A    between atoms: _584  and  _585
REMARK  233  A    between atoms: _590  and  _591
REMARK  234  A    between atoms: _590  and  _593
REMARK  235  A    between atoms: _593  and  _594
REMARK  236  A    between atoms: _597  and  _599
REMARK  237  A    between atoms: _599  and  _600
REMARK  238  A    between atoms: _599  and  _602
REMARK  239  A    between atoms: _602  and  _603
REMARK  240  A    between atoms: _603  and  _604
REMARK  241  A    between atoms: _604  and  _605
REMARK  242  A    between atoms: _614  and  _616
REMARK  243  A    between atoms: _616  and  _617
REMARK                            x       y       z     vdW  Elec       q    Type
REMARK                         _______ _______ _______ _____ _____    ______ ____
ROOT
ATOM      1  O   HOH     1      81.865   1.075 114.001  0.00  0.00    +0.000 OA
ENDROOT
TORSDOF 0
REMARK  Name = ../refined-set-2016/3upk/3upk_pocket.pdb
REMARK  243 active torsions:
REMARK  status: ('A' for Active; 'I' for Inactive)
REMARK    1  A    between atoms: _1  and  _3
REMARK    2  A    between atoms: _3  and  _4
REMARK    3  A    between atoms: _3  and  _6
REMARK    4  A    between atoms: _6  and  _7
REMARK    5  A    between atoms: _7  and  _8
REMARK    6  A    between atoms: _8  and  _9
REMARK    7  A    between atoms: _9  and  _10
REMARK    8  A    between atoms: _16  and  _17
REMARK    9  A    between atoms: _16  and  _19
REMARK   10  A    between atoms: _19  and  _20
REMARK   11  A    between atoms: _25  and  _27
REMARK   12  A    between atoms: _27  and  _28
REMARK   13  A    between atoms: _31  and  _33
REMARK   14  A    between atoms: _33  and  _34
REMARK   15  A    between atoms: _33  and  _36
REMARK   16  A    between atoms: _36  and  _37
REMARK   17  A    between atoms: _41  and  _42
REMARK   18  A    between atoms: _47  and  _49
REMARK   19  A    between atoms: _49  and  _50
REMARK   20  A    between atoms: _49  and  _52
REMARK   21  A    between atoms: _52  and  _53
REMARK   22  A    between atoms: _59  and  _61
REMARK   23  A    between atoms: _61  and  _62
REMARK   24  A    between atoms: _61  and  _64
REMARK   25  A    between atoms: _64  and  _65
REMARK   26  A    between atoms: _68  and  _70
REMARK   27  A    between atoms: _70  and  _71
REMARK   28  A    between atoms: _70  and  _73
REMARK   29  A    between atoms: _73  and  _74
REMARK   30  A    between atoms: _74  and  _75
REMARK   31  A    between atoms: _77  and  _79
REMARK   32  A    between atoms: _79  and  _80
REMARK   33  A    between atoms: _79  and  _82
REMARK   34  A    between atoms: _82  and  _83
REMARK   35  A    between atoms: _83  and  _84
REMARK   36  A    between atoms: _84  and  _85
REMARK   37  A    between atoms: _94  and  _96
REMARK   38  A    between atoms: _96  and  _97
REMARK   39  A    between atoms: _100  and  _102
REMARK   40  A    between atoms: _102  and  _103
REMARK   41  A    between atoms: _102  and  _105
REMARK   42  A    between atoms: _105  and  _106
REMARK   43  A    between atoms: _108  and  _110
REMARK   44  A    between atoms: _110  and  _111
REMARK   45  A    between atoms: _110  and  _113
REMARK   46  A    between atoms: _113  and  _114
REMARK   47  A    between atoms: _117  and  _119
REMARK   48  A    between atoms: _119  and  _120
REMARK   49  A    between atoms: _119  and  _122
REMARK   50  A    between atoms: _122  and  _123
REMARK   51  A    between atoms: _133  and  _135
REMARK   52  A    between atoms: _135  and  _136
REMARK   53  A    between atoms: _135  and  _138
REMARK   54  A    between atoms: _138  and  _139
REMARK   55  A    between atoms: _142  and  _144
REMARK   56  A    between atoms: _144  and  _145
REMARK   57  A    between atoms: _147  and  _149
REMARK   58  A    between atoms: _149  and  _150
REMARK   59  A    between atoms: _153  and  _155
REMARK   60  A    between atoms: _155  and  _156
REMARK   61  A    between atoms: _155  and  _158
REMARK   62  A    between atoms: _158  and  _159
REMARK   63  A    between atoms: _159  and  _160
REMARK   64  A    between atoms: _160  and  _161
REMARK   65  A    between atoms: _171  and  _172
REMARK   66  A    between atoms: _177  and  _179
REMARK   67  A    between atoms: _179  and  _180
REMARK   68  A    between atoms: _179  and  _182
REMARK   69  A    between atoms: _185  and  _187
REMARK   70  A    between atoms: _187  and  _188
REMARK   71  A    between atoms: _187  and  _190
REMARK   72  A    between atoms: _190  and  _191
REMARK   73  A    between atoms: _194  and  _196
REMARK   74  A    between atoms: _196  and  _197
REMARK   75  A    between atoms: _196  and  _199
REMARK   76  A    between atoms: _199  and  _200
REMARK   77  A    between atoms: _203  and  _205
REMARK   78  A    between atoms: _205  and  _206
REMARK   79  A    between atoms: _205  and  _208
REMARK   80  A    between atoms: _208  and  _209
REMARK   81  A    between atoms: _214  and  _216
REMARK   82  A    between atoms: _216  and  _217
REMARK   83  A    between atoms: _216  and  _219
REMARK   84  A    between atoms: _219  and  _220
REMARK   85  A    between atoms: _223  and  _225
REMARK   86  A    between atoms: _225  and  _226
REMARK   87  A    between atoms: _225  and  _228
REMARK   88  A    between atoms: _228  and  _229
REMARK   89  A    between atoms: _235  and  _237
REMARK   90  A    between atoms: _237  and  _238
REMARK   91  A    between atoms: _240  and  _242
REMARK   92  A    between atoms: _242  and  _243
REMARK   93  A    between atoms: _242  and  _245
REMARK   94  A    between atoms: _245  and  _246
REMARK   95  A    between atoms: _246  and  _247
REMARK   96  A    between atoms: _249  and  _251
REMARK   97  A    between atoms: _251  and  _252
REMARK   98  A    between atoms: _251  and  _254
REMARK   99  A    between atoms: _254  and  _255
REMARK  100  A    between atoms: _258  and  _260
REMARK  101  A    between atoms: _260  and  _261
REMARK  102  A    between atoms: _260  and  _263
REMARK  103  A    between atoms: _263  and  _264
REMARK  104  A    between atoms: _264  and  _265
REMARK  105  A    between atoms: _265  and  _266
REMARK  106  A    between atoms: _266  and  _267
REMARK  107  A    between atoms: _271  and  _273
REMARK  108  A    between atoms: _273  and  _274
REMARK  109  A    between atoms: _273  and  _276
REMARK  110  A    between atoms: _279  and  _281
REMARK  111  A    between atoms: _281  and  _282
REMARK  112  A    between atoms: _281  and  _284
REMARK  113  A    between atoms: _284  and  _285
REMARK  114  A    between atoms: _287  and  _289
REMARK  115  A    between atoms: _289  and  _290
REMARK  116  A    between atoms: _289  and  _292
REMARK  117  A    between atoms: _295  and  _297
REMARK  118  A    between atoms: _297  and  _298
REMARK  119  A    between atoms: _300  and  _302
REMARK  120  A    between atoms: _302  and  _303
REMARK  121  A    between atoms: _306  and  _308
REMARK  122  A    between atoms: _308  and  _309
REMARK  123  A    between atoms: _308  and  _311
REMARK  124  A    between atoms: _311  and  _312
REMARK  125  A    between atoms: _315  and  _317
REMARK  126  A    between atoms: _317  and  _318
REMARK  127  A    between atoms: _317  and  _320
REMARK  128  A    between atoms: _323  and  _325
REMARK  129  A    between atoms: _325  and  _326
REMARK  130  A    between atoms: _325  and  _328
REMARK  131  A    between atoms: _328  and  _329
REMARK  132  A    between atoms: _332  and  _334
REMARK  133  A    between atoms: _334  and  _335
REMARK  134  A    between atoms: _338  and  _340
REMARK  135  A    between atoms: _340  and  _341
REMARK  136  A    between atoms: _340  and  _343
REMARK  137  A    between atoms: _343  and  _344
REMARK  138  A    between atoms: _344  and  _345
REMARK  139  A    between atoms: _345  and  _346
REMARK  140  A    between atoms: _355  and  _357
REMARK  141  A    between atoms: _357  and  _358
REMARK  142  A    between atoms: _357  and  _360
REMARK  143  A    between atoms: _360  and  _361
REMARK  144  A    between atoms: _361  and  _362
REMARK  145  A    between atoms: _365  and  _367
REMARK  146  A    between atoms: _367  and  _368
REMARK  147  A    between atoms: _367  and  _370
REMARK  148  A    between atoms: _370  and  _371
REMARK  149  A    between atoms: _371  and  _372
REMARK  150  A    between atoms: _375  and  _377
REMARK  151  A    between atoms: _377  and  _378
REMARK  152  A    between atoms: _377  and  _380
REMARK  153  A    between atoms: _380  and  _381
REMARK  154  A    between atoms: _384  and  _386
REMARK  155  A    between atoms: _386  and  _387
REMARK  156  A    between atoms: _386  and  _389
REMARK  157  A    between atoms: _389  and  _390
REMARK  158  A    between atoms: _390  and  _391
REMARK  159  A    between atoms: _391  and  _392
REMARK  160  A    between atoms: _401  and  _403
REMARK  161  A    between atoms: _403  and  _404
REMARK  162  A    between atoms: _403  and  _406
REMARK  163  A    between atoms: _406  and  _407
REMARK  164  A    between atoms: _410  and  _412
REMARK  165  A    between atoms: _412  and  _413
REMARK  166  A    between atoms: _412  and  _415
REMARK  167  A    between atoms: _415  and  _416
REMARK  168  A    between atoms: _419  and  _421
REMARK  169  A    between atoms: _421  and  _422
REMARK  170  A    between atoms: _426  and  _427
REMARK  171  A    between atoms: _432  and  _434
REMARK  172  A    between atoms: _434  and  _435
REMARK  173  A    between atoms: _434  and  _437
REMARK  174  A    between atoms: _437  and  _438
REMARK  175  A    between atoms: _443  and  _445
REMARK  176  A    between atoms: _445  and  _446
REMARK  177  A    between atoms: _445  and  _448
REMARK  178  A    between atoms: _448  and  _449
REMARK  179  A    between atoms: _456  and  _457
REMARK  180  A    between atoms: _462  and  _464
REMARK  181  A    between atoms: _464  and  _465
REMARK  182  A    between atoms: _464  and  _467
REMARK  183  A    between atoms: _467  and  _468
REMARK  184  A    between atoms: _471  and  _473
REMARK  185  A    between atoms: _473  and  _474
REMARK  186  A    between atoms: _473  and  _476
REMARK  187  A    between atoms: _476  and  _477
REMARK  188  A    between atoms: _480  and  _482
REMARK  189  A    between atoms: _482  and  _483
REMARK  190  A    between atoms: _482  and  _485
REMARK  191  A    between atoms: _485  and  _486
REMARK  192  A    between atoms: _486  and  _487
REMARK  193  A    between atoms: _489  and  _491
REMARK  194  A    between atoms: _491  and  _492
REMARK  195  A    between atoms: _491  and  _494
REMARK  196  A    between atoms: _494  and  _495
REMARK  197  A    between atoms: _495  and  _496
REMARK  198  A    between atoms: _501  and  _503
REMARK  199  A    between atoms: _503  and  _504
REMARK  200  A    between atoms: _503  and  _506
REMARK  201  A    between atoms: _506  and  _507
REMARK  202  A    between atoms: _507  and  _508
REMARK  203  A    between atoms: _511  and  _513
REMARK  204  A    between atoms: _513  and  _514
REMARK  205  A    between atoms: _513  and  _516
REMARK  206  A    between atoms: _516  and  _517
REMARK  207  A    between atoms: _520  and  _522
REMARK  208  A    between atoms: _522  and  _523
REMARK  209  A    between atoms: _522  and  _525
REMARK  210  A    between atoms: _525  and  _526
REMARK  211  A    between atoms: _529  and  _531
REMARK  212  A    between atoms: _531  and  _532
REMARK  213  A    between atoms: _531  and  _534
REMARK  214  A    between atoms: _534  and  _535
REMARK  215  A    between atoms: _543  and  _544
REMARK  216  A    between atoms: _543  and  _546
REMARK  217  A    between atoms: _546  and  _547
REMARK  218  A    between atoms: _547  and  _548
REMARK  219  A    between atoms: _551  and  _553
REMARK  220  A    between atoms: _553  and  _554
REMARK  221  A    between atoms: _553  and  _556
REMARK  222  A    between atoms: _556  and  _557
REMARK  223  A    between atoms: _562  and  _564
REMARK  224  A    between atoms: _564  and  _565
REMARK  225  A    between atoms: _564  and  _567
REMARK  226  A    between atoms: _567  and  _568
REMARK  227  A    between atoms: _568  and  _569
REMARK  228  A    between atoms: _569  and  _570
REMARK  229  A    between atoms: _579  and  _581
REMARK  230  A    between atoms: _581  and  _582
REMARK  231  A    between atoms: _581  and  _584
REMARK  232  A    between atoms: _584  and  _585
REMARK  233  A    between atoms: _590  and  _591
REMARK  234  A    between atoms: _590  and  _593
REMARK  235  A    between atoms: _593  and  _594
REMARK  236  A    between atoms: _597  and  _599
REMARK  237  A    between atoms: _599  and  _600
REMARK  238  A    between atoms: _599  and  _602
REMARK  239  A    between atoms: _602  and  _603
REMARK  240  A    between atoms: _603  and  _604
REMARK  241  A    between atoms: _604  and  _605
REMARK  242  A    between atoms: _614  and  _616
REMARK  243  A    between atoms: _616  and  _617
REMARK                            x       y       z     vdW  Elec       q    Type
REMARK                         _______ _______ _______ _____ _____    ______ ____
ROOT
ATOM      1  O   HOH     1      76.634   3.062 128.581  0.00  0.00    +0.000 OA
ENDROOT
TORSDOF 0
REMARK  Name = ../refined-set-2016/3upk/3upk_pocket.pdb
REMARK  243 active torsions:
REMARK  status: ('A' for Active; 'I' for Inactive)
REMARK    1  A    between atoms: _1  and  _3
REMARK    2  A    between atoms: _3  and  _4
REMARK    3  A    between atoms: _3  and  _6
REMARK    4  A    between atoms: _6  and  _7
REMARK    5  A    between atoms: _7  and  _8
REMARK    6  A    between atoms: _8  and  _9
REMARK    7  A    between atoms: _9  and  _10
REMARK    8  A    between atoms: _16  and  _17
REMARK    9  A    between atoms: _16  and  _19
REMARK   10  A    between atoms: _19  and  _20
REMARK   11  A    between atoms: _25  and  _27
REMARK   12  A    between atoms: _27  and  _28
REMARK   13  A    between atoms: _31  and  _33
REMARK   14  A    between atoms: _33  and  _34
REMARK   15  A    between atoms: _33  and  _36
REMARK   16  A    between atoms: _36  and  _37
REMARK   17  A    between atoms: _41  and  _42
REMARK   18  A    between atoms: _47  and  _49
REMARK   19  A    between atoms: _49  and  _50
REMARK   20  A    between atoms: _49  and  _52
REMARK   21  A    between atoms: _52  and  _53
REMARK   22  A    between atoms: _59  and  _61
REMARK   23  A    between atoms: _61  and  _62
REMARK   24  A    between atoms: _61  and  _64
REMARK   25  A    between atoms: _64  and  _65
REMARK   26  A    between atoms: _68  and  _70
REMARK   27  A    between atoms: _70  and  _71
REMARK   28  A    between atoms: _70  and  _73
REMARK   29  A    between atoms: _73  and  _74
REMARK   30  A    between atoms: _74  and  _75
REMARK   31  A    between atoms: _77  and  _79
REMARK   32  A    between atoms: _79  and  _80
REMARK   33  A    between atoms: _79  and  _82
REMARK   34  A    between atoms: _82  and  _83
REMARK   35  A    between atoms: _83  and  _84
REMARK   36  A    between atoms: _84  and  _85
REMARK   37  A    between atoms: _94  and  _96
REMARK   38  A    between atoms: _96  and  _97
REMARK   39  A    between atoms: _100  and  _102
REMARK   40  A    between atoms: _102  and  _103
REMARK   41  A    between atoms: _102  and  _105
REMARK   42  A    between atoms: _105  and  _106
REMARK   43  A    between atoms: _108  and  _110
REMARK   44  A    between atoms: _110  and  _111
REMARK   45  A    between atoms: _110  and  _113
REMARK   46  A    between atoms: _113  and  _114
REMARK   47  A    between atoms: _117  and  _119
REMARK   48  A    between atoms: _119  and  _120
REMARK   49  A    between atoms: _119  and  _122
REMARK   50  A    between atoms: _122  and  _123
REMARK   51  A    between atoms: _133  and  _135
REMARK   52  A    between atoms: _135  and  _136
REMARK   53  A    between atoms: _135  and  _138
REMARK   54  A    between atoms: _138  and  _139
REMARK   55  A    between atoms: _142  and  _144
REMARK   56  A    between atoms: _144  and  _145
REMARK   57  A    between atoms: _147  and  _149
REMARK   58  A    between atoms: _149  and  _150
REMARK   59  A    between atoms: _153  and  _155
REMARK   60  A    between atoms: _155  and  _156
REMARK   61  A    between atoms: _155  and  _158
REMARK   62  A    between atoms: _158  and  _159
REMARK   63  A    between atoms: _159  and  _160
REMARK   64  A    between atoms: _160  and  _161
REMARK   65  A    between atoms: _171  and  _172
REMARK   66  A    between atoms: _177  and  _179
REMARK   67  A    between atoms: _179  and  _180
REMARK   68  A    between atoms: _179  and  _182
REMARK   69  A    between atoms: _185  and  _187
REMARK   70  A    between atoms: _187  and  _188
REMARK   71  A    between atoms: _187  and  _190
REMARK   72  A    between atoms: _190  and  _191
REMARK   73  A    between atoms: _194  and  _196
REMARK   74  A    between atoms: _196  and  _197
REMARK   75  A    between atoms: _196  and  _199
REMARK   76  A    between atoms: _199  and  _200
REMARK   77  A    between atoms: _203  and  _205
REMARK   78  A    between atoms: _205  and  _206
REMARK   79  A    between atoms: _205  and  _208
REMARK   80  A    between atoms: _208  and  _209
REMARK   81  A    between atoms: _214  and  _216
REMARK   82  A    between atoms: _216  and  _217
REMARK   83  A    between atoms: _216  and  _219
REMARK   84  A    between atoms: _219  and  _220
REMARK   85  A    between atoms: _223  and  _225
REMARK   86  A    between atoms: _225  and  _226
REMARK   87  A    between atoms: _225  and  _228
REMARK   88  A    between atoms: _228  and  _229
REMARK   89  A    between atoms: _235  and  _237
REMARK   90  A    between atoms: _237  and  _238
REMARK   91  A    between atoms: _240  and  _242
REMARK   92  A    between atoms: _242  and  _243
REMARK   93  A    between atoms: _242  and  _245
REMARK   94  A    between atoms: _245  and  _246
REMARK   95  A    between atoms: _246  and  _247
REMARK   96  A    between atoms: _249  and  _251
REMARK   97  A    between atoms: _251  and  _252
REMARK   98  A    between atoms: _251  and  _254
REMARK   99  A    between atoms: _254  and  _255
REMARK  100  A    between atoms: _258  and  _260
REMARK  101  A    between atoms: _260  and  _261
REMARK  102  A    between atoms: _260  and  _263
REMARK  103  A    between atoms: _263  and  _264
REMARK  104  A    between atoms: _264  and  _265
REMARK  105  A    between atoms: _265  and  _266
REMARK  106  A    between atoms: _266  and  _267
REMARK  107  A    between atoms: _271  and  _273
REMARK  108  A    between atoms: _273  and  _274
REMARK  109  A    between atoms: _273  and  _276
REMARK  110  A    between atoms: _279  and  _281
REMARK  111  A    between atoms: _281  and  _282
REMARK  112  A    between atoms: _281  and  _284
REMARK  113  A    between atoms: _284  and  _285
REMARK  114  A    between atoms: _287  and  _289
REMARK  115  A    between atoms: _289  and  _290
REMARK  116  A    between atoms: _289  and  _292
REMARK  117  A    between atoms: _295  and  _297
REMARK  118  A    between atoms: _297  and  _298
REMARK  119  A    between atoms: _300  and  _302
REMARK  120  A    between atoms: _302  and  _303
REMARK  121  A    between atoms: _306  and  _308
REMARK  122  A    between atoms: _308  and  _309
REMARK  123  A    between atoms: _308  and  _311
REMARK  124  A    between atoms: _311  and  _312
REMARK  125  A    between atoms: _315  and  _317
REMARK  126  A    between atoms: _317  and  _318
REMARK  127  A    between atoms: _317  and  _320
REMARK  128  A    between atoms: _323  and  _325
REMARK  129  A    between atoms: _325  and  _326
REMARK  130  A    between atoms: _325  and  _328
REMARK  131  A    between atoms: _328  and  _329
REMARK  132  A    between atoms: _332  and  _334
REMARK  133  A    between atoms: _334  and  _335
REMARK  134  A    between atoms: _338  and  _340
REMARK  135  A    between atoms: _340  and  _341
REMARK  136  A    between atoms: _340  and  _343
REMARK  137  A    between atoms: _343  and  _344
REMARK  138  A    between atoms: _344  and  _345
REMARK  139  A    between atoms: _345  and  _346
REMARK  140  A    between atoms: _355  and  _357
REMARK  141  A    between atoms: _357  and  _358
REMARK  142  A    between atoms: _357  and  _360
REMARK  143  A    between atoms: _360  and  _361
REMARK  144  A    between atoms: _361  and  _362
REMARK  145  A    between atoms: _365  and  _367
REMARK  146  A    between atoms: _367  and  _368
REMARK  147  A    between atoms: _367  and  _370
REMARK  148  A    between atoms: _370  and  _371
REMARK  149  A    between atoms: _371  and  _372
REMARK  150  A    between atoms: _375  and  _377
REMARK  151  A    between atoms: _377  and  _378
REMARK  152  A    between atoms: _377  and  _380
REMARK  153  A    between atoms: _380  and  _381
REMARK  154  A    between atoms: _384  and  _386
REMARK  155  A    between atoms: _386  and  _387
REMARK  156  A    between atoms: _386  and  _389
REMARK  157  A    between atoms: _389  and  _390
REMARK  158  A    between atoms: _390  and  _391
REMARK  159  A    between atoms: _391  and  _392
REMARK  160  A    between atoms: _401  and  _403
REMARK  161  A    between atoms: _403  and  _404
REMARK  162  A    between atoms: _403  and  _406
REMARK  163  A    between atoms: _406  and  _407
REMARK  164  A    between atoms: _410  and  _412
REMARK  165  A    between atoms: _412  and  _413
REMARK  166  A    between atoms: _412  and  _415
REMARK  167  A    between atoms: _415  and  _416
REMARK  168  A    between atoms: _419  and  _421
REMARK  169  A    between atoms: _421  and  _422
REMARK  170  A    between atoms: _426  and  _427
REMARK  171  A    between atoms: _432  and  _434
REMARK  172  A    between atoms: _434  and  _435
REMARK  173  A    between atoms: _434  and  _437
REMARK  174  A    between atoms: _437  and  _438
REMARK  175  A    between atoms: _443  and  _445
REMARK  176  A    between atoms: _445  and  _446
REMARK  177  A    between atoms: _445  and  _448
REMARK  178  A    between atoms: _448  and  _449
REMARK  179  A    between atoms: _456  and  _457
REMARK  180  A    between atoms: _462  and  _464
REMARK  181  A    between atoms: _464  and  _465
REMARK  182  A    between atoms: _464  and  _467
REMARK  183  A    between atoms: _467  and  _468
REMARK  184  A    between atoms: _471  and  _473
REMARK  185  A    between atoms: _473  and  _474
REMARK  186  A    between atoms: _473  and  _476
REMARK  187  A    between atoms: _476  and  _477
REMARK  188  A    between atoms: _480  and  _482
REMARK  189  A    between atoms: _482  and  _483
REMARK  190  A    between atoms: _482  and  _485
REMARK  191  A    between atoms: _485  and  _486
REMARK  192  A    between atoms: _486  and  _487
REMARK  193  A    between atoms: _489  and  _491
REMARK  194  A    between atoms: _491  and  _492
REMARK  195  A    between atoms: _491  and  _494
REMARK  196  A    between atoms: _494  and  _495
REMARK  197  A    between atoms: _495  and  _496
REMARK  198  A    between atoms: _501  and  _503
REMARK  199  A    between atoms: _503  and  _504
REMARK  200  A    between atoms: _503  and  _506
REMARK  201  A    between atoms: _506  and  _507
REMARK  202  A    between atoms: _507  and  _508
REMARK  203  A    between atoms: _511  and  _513
REMARK  204  A    between atoms: _513  and  _514
REMARK  205  A    between atoms: _513  and  _516
REMARK  206  A    between atoms: _516  and  _517
REMARK  207  A    between atoms: _520  and  _522
REMARK  208  A    between atoms: _522  and  _523
REMARK  209  A    between atoms: _522  and  _525
REMARK  210  A    between atoms: _525  and  _526
REMARK  211  A    between atoms: _529  and  _531
REMARK  212  A    between atoms: _531  and  _532
REMARK  213  A    between atoms: _531  and  _534
REMARK  214  A    between atoms: _534  and  _535
REMARK  215  A    between atoms: _543  and  _544
REMARK  216  A    between atoms: _543  and  _546
REMARK  217  A    between atoms: _546  and  _547
REMARK  218  A    between atoms: _547  and  _548
REMARK  219  A    between atoms: _551  and  _553
REMARK  220  A    between atoms: _553  and  _554
REMARK  221  A    between atoms: _553  and  _556
REMARK  222  A    between atoms: _556  and  _557
REMARK  223  A    between atoms: _562  and  _564
REMARK  224  A    between atoms: _564  and  _565
REMARK  225  A    between atoms: _564  and  _567
REMARK  226  A    between atoms: _567  and  _568
REMARK  227  A    between atoms: _568  and  _569
REMARK  228  A    between atoms: _569  and  _570
REMARK  229  A    between atoms: _579  and  _581
REMARK  230  A    between atoms: _581  and  _582
REMARK  231  A    between atoms: _581  and  _584
REMARK  232  A    between atoms: _584  and  _585
REMARK  233  A    between atoms: _590  and  _591
REMARK  234  A    between atoms: _590  and  _593
REMARK  235  A    between atoms: _593  and  _594
REMARK  236  A    between atoms: _597  and  _599
REMARK  237  A    between atoms: _599  and  _600
REMARK  238  A    between atoms: _599  and  _602
REMARK  239  A    between atoms: _602  and  _603
REMARK  240  A    between atoms: _603  and  _604
REMARK  241  A    between atoms: _604  and  _605
REMARK  242  A    between atoms: _614  and  _616
REMARK  243  A    between atoms: _616  and  _617
REMARK                            x       y       z     vdW  Elec       q    Type
REMARK                         _______ _______ _______ _____ _____    ______ ____
ROOT
ATOM      1  O   HOH     1      79.904  10.771 131.869  0.00  0.00    +0.000 OA
ENDROOT
TORSDOF 0
REMARK  Name = ../refined-set-2016/3upk/3upk_pocket.pdb
REMARK  243 active torsions:
REMARK  status: ('A' for Active; 'I' for Inactive)
REMARK    1  A    between atoms: _1  and  _3
REMARK    2  A    between atoms: _3  and  _4
REMARK    3  A    between atoms: _3  and  _6
REMARK    4  A    between atoms: _6  and  _7
REMARK    5  A    between atoms: _7  and  _8
REMARK    6  A    between atoms: _8  and  _9
REMARK    7  A    between atoms: _9  and  _10
REMARK    8  A    between atoms: _16  and  _17
REMARK    9  A    between atoms: _16  and  _19
REMARK   10  A    between atoms: _19  and  _20
REMARK   11  A    between atoms: _25  and  _27
REMARK   12  A    between atoms: _27  and  _28
REMARK   13  A    between atoms: _31  and  _33
REMARK   14  A    between atoms: _33  and  _34
REMARK   15  A    between atoms: _33  and  _36
REMARK   16  A    between atoms: _36  and  _37
REMARK   17  A    between atoms: _41  and  _42
REMARK   18  A    between atoms: _47  and  _49
REMARK   19  A    between atoms: _49  and  _50
REMARK   20  A    between atoms: _49  and  _52
REMARK   21  A    between atoms: _52  and  _53
REMARK   22  A    between atoms: _59  and  _61
REMARK   23  A    between atoms: _61  and  _62
REMARK   24  A    between atoms: _61  and  _64
REMARK   25  A    between atoms: _64  and  _65
REMARK   26  A    between atoms: _68  and  _70
REMARK   27  A    between atoms: _70  and  _71
REMARK   28  A    between atoms: _70  and  _73
REMARK   29  A    between atoms: _73  and  _74
REMARK   30  A    between atoms: _74  and  _75
REMARK   31  A    between atoms: _77  and  _79
REMARK   32  A    between atoms: _79  and  _80
REMARK   33  A    between atoms: _79  and  _82
REMARK   34  A    between atoms: _82  and  _83
REMARK   35  A    between atoms: _83  and  _84
REMARK   36  A    between atoms: _84  and  _85
REMARK   37  A    between atoms: _94  and  _96
REMARK   38  A    between atoms: _96  and  _97
REMARK   39  A    between atoms: _100  and  _102
REMARK   40  A    between atoms: _102  and  _103
REMARK   41  A    between atoms: _102  and  _105
REMARK   42  A    between atoms: _105  and  _106
REMARK   43  A    between atoms: _108  and  _110
REMARK   44  A    between atoms: _110  and  _111
REMARK   45  A    between atoms: _110  and  _113
REMARK   46  A    between atoms: _113  and  _114
REMARK   47  A    between atoms: _117  and  _119
REMARK   48  A    between atoms: _119  and  _120
REMARK   49  A    between atoms: _119  and  _122
REMARK   50  A    between atoms: _122  and  _123
REMARK   51  A    between atoms: _133  and  _135
REMARK   52  A    between atoms: _135  and  _136
REMARK   53  A    between atoms: _135  and  _138
REMARK   54  A    between atoms: _138  and  _139
REMARK   55  A    between atoms: _142  and  _144
REMARK   56  A    between atoms: _144  and  _145
REMARK   57  A    between atoms: _147  and  _149
REMARK   58  A    between atoms: _149  and  _150
REMARK   59  A    between atoms: _153  and  _155
REMARK   60  A    between atoms: _155  and  _156
REMARK   61  A    between atoms: _155  and  _158
REMARK   62  A    between atoms: _158  and  _159
REMARK   63  A    between atoms: _159  and  _160
REMARK   64  A    between atoms: _160  and  _161
REMARK   65  A    between atoms: _171  and  _172
REMARK   66  A    between atoms: _177  and  _179
REMARK   67  A    between atoms: _179  and  _180
REMARK   68  A    between atoms: _179  and  _182
REMARK   69  A    between atoms: _185  and  _187
REMARK   70  A    between atoms: _187  and  _188
REMARK   71  A    between atoms: _187  and  _190
REMARK   72  A    between atoms: _190  and  _191
REMARK   73  A    between atoms: _194  and  _196
REMARK   74  A    between atoms: _196  and  _197
REMARK   75  A    between atoms: _196  and  _199
REMARK   76  A    between atoms: _199  and  _200
REMARK   77  A    between atoms: _203  and  _205
REMARK   78  A    between atoms: _205  and  _206
REMARK   79  A    between atoms: _205  and  _208
REMARK   80  A    between atoms: _208  and  _209
REMARK   81  A    between atoms: _214  and  _216
REMARK   82  A    between atoms: _216  and  _217
REMARK   83  A    between atoms: _216  and  _219
REMARK   84  A    between atoms: _219  and  _220
REMARK   85  A    between atoms: _223  and  _225
REMARK   86  A    between atoms: _225  and  _226
REMARK   87  A    between atoms: _225  and  _228
REMARK   88  A    between atoms: _228  and  _229
REMARK   89  A    between atoms: _235  and  _237
REMARK   90  A    between atoms: _237  and  _238
REMARK   91  A    between atoms: _240  and  _242
REMARK   92  A    between atoms: _242  and  _243
REMARK   93  A    between atoms: _242  and  _245
REMARK   94  A    between atoms: _245  and  _246
REMARK   95  A    between atoms: _246  and  _247
REMARK   96  A    between atoms: _249  and  _251
REMARK   97  A    between atoms: _251  and  _252
REMARK   98  A    between atoms: _251  and  _254
REMARK   99  A    between atoms: _254  and  _255
REMARK  100  A    between atoms: _258  and  _260
REMARK  101  A    between atoms: _260  and  _261
REMARK  102  A    between atoms: _260  and  _263
REMARK  103  A    between atoms: _263  and  _264
REMARK  104  A    between atoms: _264  and  _265
REMARK  105  A    between atoms: _265  and  _266
REMARK  106  A    between atoms: _266  and  _267
REMARK  107  A    between atoms: _271  and  _273
REMARK  108  A    between atoms: _273  and  _274
REMARK  109  A    between atoms: _273  and  _276
REMARK  110  A    between atoms: _279  and  _281
REMARK  111  A    between atoms: _281  and  _282
REMARK  112  A    between atoms: _281  and  _284
REMARK  113  A    between atoms: _284  and  _285
REMARK  114  A    between atoms: _287  and  _289
REMARK  115  A    between atoms: _289  and  _290
REMARK  116  A    between atoms: _289  and  _292
REMARK  117  A    between atoms: _295  and  _297
REMARK  118  A    between atoms: _297  and  _298
REMARK  119  A    between atoms: _300  and  _302
REMARK  120  A    between atoms: _302  and  _303
REMARK  121  A    between atoms: _306  and  _308
REMARK  122  A    between atoms: _308  and  _309
REMARK  123  A    between atoms: _308  and  _311
REMARK  124  A    between atoms: _311  and  _312
REMARK  125  A    between atoms: _315  and  _317
REMARK  126  A    between atoms: _317  and  _318
REMARK  127  A    between atoms: _317  and  _320
REMARK  128  A    between atoms: _323  and  _325
REMARK  129  A    between atoms: _325  and  _326
REMARK  130  A    between atoms: _325  and  _328
REMARK  131  A    between atoms: _328  and  _329
REMARK  132  A    between atoms: _332  and  _334
REMARK  133  A    between atoms: _334  and  _335
REMARK  134  A    between atoms: _338  and  _340
REMARK  135  A    between atoms: _340  and  _341
REMARK  136  A    between atoms: _340  and  _343
REMARK  137  A    between atoms: _343  and  _344
REMARK  138  A    between atoms: _344  and  _345
REMARK  139  A    between atoms: _345  and  _346
REMARK  140  A    between atoms: _355  and  _357
REMARK  141  A    between atoms: _357  and  _358
REMARK  142  A    between atoms: _357  and  _360
REMARK  143  A    between atoms: _360  and  _361
REMARK  144  A    between atoms: _361  and  _362
REMARK  145  A    between atoms: _365  and  _367
REMARK  146  A    between atoms: _367  and  _368
REMARK  147  A    between atoms: _367  and  _370
REMARK  148  A    between atoms: _370  and  _371
REMARK  149  A    between atoms: _371  and  _372
REMARK  150  A    between atoms: _375  and  _377
REMARK  151  A    between atoms: _377  and  _378
REMARK  152  A    between atoms: _377  and  _380
REMARK  153  A    between atoms: _380  and  _381
REMARK  154  A    between atoms: _384  and  _386
REMARK  155  A    between atoms: _386  and  _387
REMARK  156  A    between atoms: _386  and  _389
REMARK  157  A    between atoms: _389  and  _390
REMARK  158  A    between atoms: _390  and  _391
REMARK  159  A    between atoms: _391  and  _392
REMARK  160  A    between atoms: _401  and  _403
REMARK  161  A    between atoms: _403  and  _404
REMARK  162  A    between atoms: _403  and  _406
REMARK  163  A    between atoms: _406  and  _407
REMARK  164  A    between atoms: _410  and  _412
REMARK  165  A    between atoms: _412  and  _413
REMARK  166  A    between atoms: _412  and  _415
REMARK  167  A    between atoms: _415  and  _416
REMARK  168  A    between atoms: _419  and  _421
REMARK  169  A    between atoms: _421  and  _422
REMARK  170  A    between atoms: _426  and  _427
REMARK  171  A    between atoms: _432  and  _434
REMARK  172  A    between atoms: _434  and  _435
REMARK  173  A    between atoms: _434  and  _437
REMARK  174  A    between atoms: _437  and  _438
REMARK  175  A    between atoms: _443  and  _445
REMARK  176  A    between atoms: _445  and  _446
REMARK  177  A    between atoms: _445  and  _448
REMARK  178  A    between atoms: _448  and  _449
REMARK  179  A    between atoms: _456  and  _457
REMARK  180  A    between atoms: _462  and  _464
REMARK  181  A    between atoms: _464  and  _465
REMARK  182  A    between atoms: _464  and  _467
REMARK  183  A    between atoms: _467  and  _468
REMARK  184  A    between atoms: _471  and  _473
REMARK  185  A    between atoms: _473  and  _474
REMARK  186  A    between atoms: _473  and  _476
REMARK  187  A    between atoms: _476  and  _477
REMARK  188  A    between atoms: _480  and  _482
REMARK  189  A    between atoms: _482  and  _483
REMARK  190  A    between atoms: _482  and  _485
REMARK  191  A    between atoms: _485  and  _486
REMARK  192  A    between atoms: _486  and  _487
REMARK  193  A    between atoms: _489  and  _491
REMARK  194  A    between atoms: _491  and  _492
REMARK  195  A    between atoms: _491  and  _494
REMARK  196  A    between atoms: _494  and  _495
REMARK  197  A    between atoms: _495  and  _496
REMARK  198  A    between atoms: _501  and  _503
REMARK  199  A    between atoms: _503  and  _504
REMARK  200  A    between atoms: _503  and  _506
REMARK  201  A    between atoms: _506  and  _507
REMARK  202  A    between atoms: _507  and  _508
REMARK  203  A    between atoms: _511  and  _513
REMARK  204  A    between atoms: _513  and  _514
REMARK  205  A    between atoms: _513  and  _516
REMARK  206  A    between atoms: _516  and  _517
REMARK  207  A    between atoms: _520  and  _522
REMARK  208  A    between atoms: _522  and  _523
REMARK  209  A    between atoms: _522  and  _525
REMARK  210  A    between atoms: _525  and  _526
REMARK  211  A    between atoms: _529  and  _531
REMARK  212  A    between atoms: _531  and  _532
REMARK  213  A    between atoms: _531  and  _534
REMARK  214  A    between atoms: _534  and  _535
REMARK  215  A    between atoms: _543  and  _544
REMARK  216  A    between atoms: _543  and  _546
REMARK  217  A    between atoms: _546  and  _547
REMARK  218  A    between atoms: _547  and  _548
REMARK  219  A    between atoms: _551  and  _553
REMARK  220  A    between atoms: _553  and  _554
REMARK  221  A    between atoms: _553  and  _556
REMARK  222  A    between atoms: _556  and  _557
REMARK  223  A    between atoms: _562  and  _564
REMARK  224  A    between atoms: _564  and  _565
REMARK  225  A    between atoms: _564  and  _567
REMARK  226  A    between atoms: _567  and  _568
REMARK  227  A    between atoms: _568  and  _569
REMARK  228  A    between atoms: _569  and  _570
REMARK  229  A    between atoms: _579  and  _581
REMARK  230  A    between atoms: _581  and  _582
REMARK  231  A    between atoms: _581  and  _584
REMARK  232  A    between atoms: _584  and  _585
REMARK  233  A    between atoms: _590  and  _591
REMARK  234  A    between atoms: _590  and  _593
REMARK  235  A    between atoms: _593  and  _594
REMARK  236  A    between atoms: _597  and  _599
REMARK  237  A    between atoms: _599  and  _600
REMARK  238  A    between atoms: _599  and  _602
REMARK  239  A    between atoms: _602  and  _603
REMARK  240  A    between atoms: _603  and  _604
REMARK  241  A    between atoms: _604  and  _605
REMARK  242  A    between atoms: _614  and  _616
REMARK  243  A    between atoms: _616  and  _617
REMARK                            x       y       z     vdW  Elec       q    Type
REMARK                         _______ _______ _______ _____ _____    ______ ____
ROOT
ATOM      1  O   HOH     1      79.003   4.307 132.484  0.00  0.00    +0.000 OA
ENDROOT
TORSDOF 0
REMARK  Name = ../refined-set-2016/3upk/3upk_pocket.pdb
REMARK  243 active torsions:
REMARK  status: ('A' for Active; 'I' for Inactive)
REMARK    1  A    between atoms: _1  and  _3
REMARK    2  A    between atoms: _3  and  _4
REMARK    3  A    between atoms: _3  and  _6
REMARK    4  A    between atoms: _6  and  _7
REMARK    5  A    between atoms: _7  and  _8
REMARK    6  A    between atoms: _8  and  _9
REMARK    7  A    between atoms: _9  and  _10
REMARK    8  A    between atoms: _16  and  _17
REMARK    9  A    between atoms: _16  and  _19
REMARK   10  A    between atoms: _19  and  _20
REMARK   11  A    between atoms: _25  and  _27
REMARK   12  A    between atoms: _27  and  _28
REMARK   13  A    between atoms: _31  and  _33
REMARK   14  A    between atoms: _33  and  _34
REMARK   15  A    between atoms: _33  and  _36
REMARK   16  A    between atoms: _36  and  _37
REMARK   17  A    between atoms: _41  and  _42
REMARK   18  A    between atoms: _47  and  _49
REMARK   19  A    between atoms: _49  and  _50
REMARK   20  A    between atoms: _49  and  _52
REMARK   21  A    between atoms: _52  and  _53
REMARK   22  A    between atoms: _59  and  _61
REMARK   23  A    between atoms: _61  and  _62
REMARK   24  A    between atoms: _61  and  _64
REMARK   25  A    between atoms: _64  and  _65
REMARK   26  A    between atoms: _68  and  _70
REMARK   27  A    between atoms: _70  and  _71
REMARK   28  A    between atoms: _70  and  _73
REMARK   29  A    between atoms: _73  and  _74
REMARK   30  A    between atoms: _74  and  _75
REMARK   31  A    between atoms: _77  and  _79
REMARK   32  A    between atoms: _79  and  _80
REMARK   33  A    between atoms: _79  and  _82
REMARK   34  A    between atoms: _82  and  _83
REMARK   35  A    between atoms: _83  and  _84
REMARK   36  A    between atoms: _84  and  _85
REMARK   37  A    between atoms: _94  and  _96
REMARK   38  A    between atoms: _96  and  _97
REMARK   39  A    between atoms: _100  and  _102
REMARK   40  A    between atoms: _102  and  _103
REMARK   41  A    between atoms: _102  and  _105
REMARK   42  A    between atoms: _105  and  _106
REMARK   43  A    between atoms: _108  and  _110
REMARK   44  A    between atoms: _110  and  _111
REMARK   45  A    between atoms: _110  and  _113
REMARK   46  A    between atoms: _113  and  _114
REMARK   47  A    between atoms: _117  and  _119
REMARK   48  A    between atoms: _119  and  _120
REMARK   49  A    between atoms: _119  and  _122
REMARK   50  A    between atoms: _122  and  _123
REMARK   51  A    between atoms: _133  and  _135
REMARK   52  A    between atoms: _135  and  _136
REMARK   53  A    between atoms: _135  and  _138
REMARK   54  A    between atoms: _138  and  _139
REMARK   55  A    between atoms: _142  and  _144
REMARK   56  A    between atoms: _144  and  _145
REMARK   57  A    between atoms: _147  and  _149
REMARK   58  A    between atoms: _149  and  _150
REMARK   59  A    between atoms: _153  and  _155
REMARK   60  A    between atoms: _155  and  _156
REMARK   61  A    between atoms: _155  and  _158
REMARK   62  A    between atoms: _158  and  _159
REMARK   63  A    between atoms: _159  and  _160
REMARK   64  A    between atoms: _160  and  _161
REMARK   65  A    between atoms: _171  and  _172
REMARK   66  A    between atoms: _177  and  _179
REMARK   67  A    between atoms: _179  and  _180
REMARK   68  A    between atoms: _179  and  _182
REMARK   69  A    between atoms: _185  and  _187
REMARK   70  A    between atoms: _187  and  _188
REMARK   71  A    between atoms: _187  and  _190
REMARK   72  A    between atoms: _190  and  _191
REMARK   73  A    between atoms: _194  and  _196
REMARK   74  A    between atoms: _196  and  _197
REMARK   75  A    between atoms: _196  and  _199
REMARK   76  A    between atoms: _199  and  _200
REMARK   77  A    between atoms: _203  and  _205
REMARK   78  A    between atoms: _205  and  _206
REMARK   79  A    between atoms: _205  and  _208
REMARK   80  A    between atoms: _208  and  _209
REMARK   81  A    between atoms: _214  and  _216
REMARK   82  A    between atoms: _216  and  _217
REMARK   83  A    between atoms: _216  and  _219
REMARK   84  A    between atoms: _219  and  _220
REMARK   85  A    between atoms: _223  and  _225
REMARK   86  A    between atoms: _225  and  _226
REMARK   87  A    between atoms: _225  and  _228
REMARK   88  A    between atoms: _228  and  _229
REMARK   89  A    between atoms: _235  and  _237
REMARK   90  A    between atoms: _237  and  _238
REMARK   91  A    between atoms: _240  and  _242
REMARK   92  A    between atoms: _242  and  _243
REMARK   93  A    between atoms: _242  and  _245
REMARK   94  A    between atoms: _245  and  _246
REMARK   95  A    between atoms: _246  and  _247
REMARK   96  A    between atoms: _249  and  _251
REMARK   97  A    between atoms: _251  and  _252
REMARK   98  A    between atoms: _251  and  _254
REMARK   99  A    between atoms: _254  and  _255
REMARK  100  A    between atoms: _258  and  _260
REMARK  101  A    between atoms: _260  and  _261
REMARK  102  A    between atoms: _260  and  _263
REMARK  103  A    between atoms: _263  and  _264
REMARK  104  A    between atoms: _264  and  _265
REMARK  105  A    between atoms: _265  and  _266
REMARK  106  A    between atoms: _266  and  _267
REMARK  107  A    between atoms: _271  and  _273
REMARK  108  A    between atoms: _273  and  _274
REMARK  109  A    between atoms: _273  and  _276
REMARK  110  A    between atoms: _279  and  _281
REMARK  111  A    between atoms: _281  and  _282
REMARK  112  A    between atoms: _281  and  _284
REMARK  113  A    between atoms: _284  and  _285
REMARK  114  A    between atoms: _287  and  _289
REMARK  115  A    between atoms: _289  and  _290
REMARK  116  A    between atoms: _289  and  _292
REMARK  117  A    between atoms: _295  and  _297
REMARK  118  A    between atoms: _297  and  _298
REMARK  119  A    between atoms: _300  and  _302
REMARK  120  A    between atoms: _302  and  _303
REMARK  121  A    between atoms: _306  and  _308
REMARK  122  A    between atoms: _308  and  _309
REMARK  123  A    between atoms: _308  and  _311
REMARK  124  A    between atoms: _311  and  _312
REMARK  125  A    between atoms: _315  and  _317
REMARK  126  A    between atoms: _317  and  _318
REMARK  127  A    between atoms: _317  and  _320
REMARK  128  A    between atoms: _323  and  _325
REMARK  129  A    between atoms: _325  and  _326
REMARK  130  A    between atoms: _325  and  _328
REMARK  131  A    between atoms: _328  and  _329
REMARK  132  A    between atoms: _332  and  _334
REMARK  133  A    between atoms: _334  and  _335
REMARK  134  A    between atoms: _338  and  _340
REMARK  135  A    between atoms: _340  and  _341
REMARK  136  A    between atoms: _340  and  _343
REMARK  137  A    between atoms: _343  and  _344
REMARK  138  A    between atoms: _344  and  _345
REMARK  139  A    between atoms: _345  and  _346
REMARK  140  A    between atoms: _355  and  _357
REMARK  141  A    between atoms: _357  and  _358
REMARK  142  A    between atoms: _357  and  _360
REMARK  143  A    between atoms: _360  and  _361
REMARK  144  A    between atoms: _361  and  _362
REMARK  145  A    between atoms: _365  and  _367
REMARK  146  A    between atoms: _367  and  _368
REMARK  147  A    between atoms: _367  and  _370
REMARK  148  A    between atoms: _370  and  _371
REMARK  149  A    between atoms: _371  and  _372
REMARK  150  A    between atoms: _375  and  _377
REMARK  151  A    between atoms: _377  and  _378
REMARK  152  A    between atoms: _377  and  _380
REMARK  153  A    between atoms: _380  and  _381
REMARK  154  A    between atoms: _384  and  _386
REMARK  155  A    between atoms: _386  and  _387
REMARK  156  A    between atoms: _386  and  _389
REMARK  157  A    between atoms: _389  and  _390
REMARK  158  A    between atoms: _390  and  _391
REMARK  159  A    between atoms: _391  and  _392
REMARK  160  A    between atoms: _401  and  _403
REMARK  161  A    between atoms: _403  and  _404
REMARK  162  A    between atoms: _403  and  _406
REMARK  163  A    between atoms: _406  and  _407
REMARK  164  A    between atoms: _410  and  _412
REMARK  165  A    between atoms: _412  and  _413
REMARK  166  A    between atoms: _412  and  _415
REMARK  167  A    between atoms: _415  and  _416
REMARK  168  A    between atoms: _419  and  _421
REMARK  169  A    between atoms: _421  and  _422
REMARK  170  A    between atoms: _426  and  _427
REMARK  171  A    between atoms: _432  and  _434
REMARK  172  A    between atoms: _434  and  _435
REMARK  173  A    between atoms: _434  and  _437
REMARK  174  A    between atoms: _437  and  _438
REMARK  175  A    between atoms: _443  and  _445
REMARK  176  A    between atoms: _445  and  _446
REMARK  177  A    between atoms: _445  and  _448
REMARK  178  A    between atoms: _448  and  _449
REMARK  179  A    between atoms: _456  and  _457
REMARK  180  A    between atoms: _462  and  _464
REMARK  181  A    between atoms: _464  and  _465
REMARK  182  A    between atoms: _464  and  _467
REMARK  183  A    between atoms: _467  and  _468
REMARK  184  A    between atoms: _471  and  _473
REMARK  185  A    between atoms: _473  and  _474
REMARK  186  A    between atoms: _473  and  _476
REMARK  187  A    between atoms: _476  and  _477
REMARK  188  A    between atoms: _480  and  _482
REMARK  189  A    between atoms: _482  and  _483
REMARK  190  A    between atoms: _482  and  _485
REMARK  191  A    between atoms: _485  and  _486
REMARK  192  A    between atoms: _486  and  _487
REMARK  193  A    between atoms: _489  and  _491
REMARK  194  A    between atoms: _491  and  _492
REMARK  195  A    between atoms: _491  and  _494
REMARK  196  A    between atoms: _494  and  _495
REMARK  197  A    between atoms: _495  and  _496
REMARK  198  A    between atoms: _501  and  _503
REMARK  199  A    between atoms: _503  and  _504
REMARK  200  A    between atoms: _503  and  _506
REMARK  201  A    between atoms: _506  and  _507
REMARK  202  A    between atoms: _507  and  _508
REMARK  203  A    between atoms: _511  and  _513
REMARK  204  A    between atoms: _513  and  _514
REMARK  205  A    between atoms: _513  and  _516
REMARK  206  A    between atoms: _516  and  _517
REMARK  207  A    between atoms: _520  and  _522
REMARK  208  A    between atoms: _522  and  _523
REMARK  209  A    between atoms: _522  and  _525
REMARK  210  A    between atoms: _525  and  _526
REMARK  211  A    between atoms: _529  and  _531
REMARK  212  A    between atoms: _531  and  _532
REMARK  213  A    between atoms: _531  and  _534
REMARK  214  A    between atoms: _534  and  _535
REMARK  215  A    between atoms: _543  and  _544
REMARK  216  A    between atoms: _543  and  _546
REMARK  217  A    between atoms: _546  and  _547
REMARK  218  A    between atoms: _547  and  _548
REMARK  219  A    between atoms: _551  and  _553
REMARK  220  A    between atoms: _553  and  _554
REMARK  221  A    between atoms: _553  and  _556
REMARK  222  A    between atoms: _556  and  _557
REMARK  223  A    between atoms: _562  and  _564
REMARK  224  A    between atoms: _564  and  _565
REMARK  225  A    between atoms: _564  and  _567
REMARK  226  A    between atoms: _567  and  _568
REMARK  227  A    between atoms: _568  and  _569
REMARK  228  A    between atoms: _569  and  _570
REMARK  229  A    between atoms: _579  and  _581
REMARK  230  A    between atoms: _581  and  _582
REMARK  231  A    between atoms: _581  and  _584
REMARK  232  A    between atoms: _584  and  _585
REMARK  233  A    between atoms: _590  and  _591
REMARK  234  A    between atoms: _590  and  _593
REMARK  235  A    between atoms: _593  and  _594
REMARK  236  A    between atoms: _597  and  _599
REMARK  237  A    between atoms: _599  and  _600
REMARK  238  A    between atoms: _599  and  _602
REMARK  239  A    between atoms: _602  and  _603
REMARK  240  A    between atoms: _603  and  _604
REMARK  241  A    between atoms: _604  and  _605
REMARK  242  A    between atoms: _614  and  _616
REMARK  243  A    between atoms: _616  and  _617
REMARK                            x       y       z     vdW  Elec       q    Type
REMARK                         _______ _______ _______ _____ _____    ______ ____
ROOT
ATOM      1  O   HOH     1      82.581   4.538 137.858  0.00  0.00    +0.000 OA
ENDROOT
TORSDOF 0
REMARK  Name = ../refined-set-2016/3upk/3upk_pocket.pdb
REMARK  243 active torsions:
REMARK  status: ('A' for Active; 'I' for Inactive)
REMARK    1  A    between atoms: _1  and  _3
REMARK    2  A    between atoms: _3  and  _4
REMARK    3  A    between atoms: _3  and  _6
REMARK    4  A    between atoms: _6  and  _7
REMARK    5  A    between atoms: _7  and  _8
REMARK    6  A    between atoms: _8  and  _9
REMARK    7  A    between atoms: _9  and  _10
REMARK    8  A    between atoms: _16  and  _17
REMARK    9  A    between atoms: _16  and  _19
REMARK   10  A    between atoms: _19  and  _20
REMARK   11  A    between atoms: _25  and  _27
REMARK   12  A    between atoms: _27  and  _28
REMARK   13  A    between atoms: _31  and  _33
REMARK   14  A    between atoms: _33  and  _34
REMARK   15  A    between atoms: _33  and  _36
REMARK   16  A    between atoms: _36  and  _37
REMARK   17  A    between atoms: _41  and  _42
REMARK   18  A    between atoms: _47  and  _49
REMARK   19  A    between atoms: _49  and  _50
REMARK   20  A    between atoms: _49  and  _52
REMARK   21  A    between atoms: _52  and  _53
REMARK   22  A    between atoms: _59  and  _61
REMARK   23  A    between atoms: _61  and  _62
REMARK   24  A    between atoms: _61  and  _64
REMARK   25  A    between atoms: _64  and  _65
REMARK   26  A    between atoms: _68  and  _70
REMARK   27  A    between atoms: _70  and  _71
REMARK   28  A    between atoms: _70  and  _73
REMARK   29  A    between atoms: _73  and  _74
REMARK   30  A    between atoms: _74  and  _75
REMARK   31  A    between atoms: _77  and  _79
REMARK   32  A    between atoms: _79  and  _80
REMARK   33  A    between atoms: _79  and  _82
REMARK   34  A    between atoms: _82  and  _83
REMARK   35  A    between atoms: _83  and  _84
REMARK   36  A    between atoms: _84  and  _85
REMARK   37  A    between atoms: _94  and  _96
REMARK   38  A    between atoms: _96  and  _97
REMARK   39  A    between atoms: _100  and  _102
REMARK   40  A    between atoms: _102  and  _103
REMARK   41  A    between atoms: _102  and  _105
REMARK   42  A    between atoms: _105  and  _106
REMARK   43  A    between atoms: _108  and  _110
REMARK   44  A    between atoms: _110  and  _111
REMARK   45  A    between atoms: _110  and  _113
REMARK   46  A    between atoms: _113  and  _114
REMARK   47  A    between atoms: _117  and  _119
REMARK   48  A    between atoms: _119  and  _120
REMARK   49  A    between atoms: _119  and  _122
REMARK   50  A    between atoms: _122  and  _123
REMARK   51  A    between atoms: _133  and  _135
REMARK   52  A    between atoms: _135  and  _136
REMARK   53  A    between atoms: _135  and  _138
REMARK   54  A    between atoms: _138  and  _139
REMARK   55  A    between atoms: _142  and  _144
REMARK   56  A    between atoms: _144  and  _145
REMARK   57  A    between atoms: _147  and  _149
REMARK   58  A    between atoms: _149  and  _150
REMARK   59  A    between atoms: _153  and  _155
REMARK   60  A    between atoms: _155  and  _156
REMARK   61  A    between atoms: _155  and  _158
REMARK   62  A    between atoms: _158  and  _159
REMARK   63  A    between atoms: _159  and  _160
REMARK   64  A    between atoms: _160  and  _161
REMARK   65  A    between atoms: _171  and  _172
REMARK   66  A    between atoms: _177  and  _179
REMARK   67  A    between atoms: _179  and  _180
REMARK   68  A    between atoms: _179  and  _182
REMARK   69  A    between atoms: _185  and  _187
REMARK   70  A    between atoms: _187  and  _188
REMARK   71  A    between atoms: _187  and  _190
REMARK   72  A    between atoms: _190  and  _191
REMARK   73  A    between atoms: _194  and  _196
REMARK   74  A    between atoms: _196  and  _197
REMARK   75  A    between atoms: _196  and  _199
REMARK   76  A    between atoms: _199  and  _200
REMARK   77  A    between atoms: _203  and  _205
REMARK   78  A    between atoms: _205  and  _206
REMARK   79  A    between atoms: _205  and  _208
REMARK   80  A    between atoms: _208  and  _209
REMARK   81  A    between atoms: _214  and  _216
REMARK   82  A    between atoms: _216  and  _217
REMARK   83  A    between atoms: _216  and  _219
REMARK   84  A    between atoms: _219  and  _220
REMARK   85  A    between atoms: _223  and  _225
REMARK   86  A    between atoms: _225  and  _226
REMARK   87  A    between atoms: _225  and  _228
REMARK   88  A    between atoms: _228  and  _229
REMARK   89  A    between atoms: _235  and  _237
REMARK   90  A    between atoms: _237  and  _238
REMARK   91  A    between atoms: _240  and  _242
REMARK   92  A    between atoms: _242  and  _243
REMARK   93  A    between atoms: _242  and  _245
REMARK   94  A    between atoms: _245  and  _246
REMARK   95  A    between atoms: _246  and  _247
REMARK   96  A    between atoms: _249  and  _251
REMARK   97  A    between atoms: _251  and  _252
REMARK   98  A    between atoms: _251  and  _254
REMARK   99  A    between atoms: _254  and  _255
REMARK  100  A    between atoms: _258  and  _260
REMARK  101  A    between atoms: _260  and  _261
REMARK  102  A    between atoms: _260  and  _263
REMARK  103  A    between atoms: _263  and  _264
REMARK  104  A    between atoms: _264  and  _265
REMARK  105  A    between atoms: _265  and  _266
REMARK  106  A    between atoms: _266  and  _267
REMARK  107  A    between atoms: _271  and  _273
REMARK  108  A    between atoms: _273  and  _274
REMARK  109  A    between atoms: _273  and  _276
REMARK  110  A    between atoms: _279  and  _281
REMARK  111  A    between atoms: _281  and  _282
REMARK  112  A    between atoms: _281  and  _284
REMARK  113  A    between atoms: _284  and  _285
REMARK  114  A    between atoms: _287  and  _289
REMARK  115  A    between atoms: _289  and  _290
REMARK  116  A    between atoms: _289  and  _292
REMARK  117  A    between atoms: _295  and  _297
REMARK  118  A    between atoms: _297  and  _298
REMARK  119  A    between atoms: _300  and  _302
REMARK  120  A    between atoms: _302  and  _303
REMARK  121  A    between atoms: _306  and  _308
REMARK  122  A    between atoms: _308  and  _309
REMARK  123  A    between atoms: _308  and  _311
REMARK  124  A    between atoms: _311  and  _312
REMARK  125  A    between atoms: _315  and  _317
REMARK  126  A    between atoms: _317  and  _318
REMARK  127  A    between atoms: _317  and  _320
REMARK  128  A    between atoms: _323  and  _325
REMARK  129  A    between atoms: _325  and  _326
REMARK  130  A    between atoms: _325  and  _328
REMARK  131  A    between atoms: _328  and  _329
REMARK  132  A    between atoms: _332  and  _334
REMARK  133  A    between atoms: _334  and  _335
REMARK  134  A    between atoms: _338  and  _340
REMARK  135  A    between atoms: _340  and  _341
REMARK  136  A    between atoms: _340  and  _343
REMARK  137  A    between atoms: _343  and  _344
REMARK  138  A    between atoms: _344  and  _345
REMARK  139  A    between atoms: _345  and  _346
REMARK  140  A    between atoms: _355  and  _357
REMARK  141  A    between atoms: _357  and  _358
REMARK  142  A    between atoms: _357  and  _360
REMARK  143  A    between atoms: _360  and  _361
REMARK  144  A    between atoms: _361  and  _362
REMARK  145  A    between atoms: _365  and  _367
REMARK  146  A    between atoms: _367  and  _368
REMARK  147  A    between atoms: _367  and  _370
REMARK  148  A    between atoms: _370  and  _371
REMARK  149  A    between atoms: _371  and  _372
REMARK  150  A    between atoms: _375  and  _377
REMARK  151  A    between atoms: _377  and  _378
REMARK  152  A    between atoms: _377  and  _380
REMARK  153  A    between atoms: _380  and  _381
REMARK  154  A    between atoms: _384  and  _386
REMARK  155  A    between atoms: _386  and  _387
REMARK  156  A    between atoms: _386  and  _389
REMARK  157  A    between atoms: _389  and  _390
REMARK  158  A    between atoms: _390  and  _391
REMARK  159  A    between atoms: _391  and  _392
REMARK  160  A    between atoms: _401  and  _403
REMARK  161  A    between atoms: _403  and  _404
REMARK  162  A    between atoms: _403  and  _406
REMARK  163  A    between atoms: _406  and  _407
REMARK  164  A    between atoms: _410  and  _412
REMARK  165  A    between atoms: _412  and  _413
REMARK  166  A    between atoms: _412  and  _415
REMARK  167  A    between atoms: _415  and  _416
REMARK  168  A    between atoms: _419  and  _421
REMARK  169  A    between atoms: _421  and  _422
REMARK  170  A    between atoms: _426  and  _427
REMARK  171  A    between atoms: _432  and  _434
REMARK  172  A    between atoms: _434  and  _435
REMARK  173  A    between atoms: _434  and  _437
REMARK  174  A    between atoms: _437  and  _438
REMARK  175  A    between atoms: _443  and  _445
REMARK  176  A    between atoms: _445  and  _446
REMARK  177  A    between atoms: _445  and  _448
REMARK  178  A    between atoms: _448  and  _449
REMARK  179  A    between atoms: _456  and  _457
REMARK  180  A    between atoms: _462  and  _464
REMARK  181  A    between atoms: _464  and  _465
REMARK  182  A    between atoms: _464  and  _467
REMARK  183  A    between atoms: _467  and  _468
REMARK  184  A    between atoms: _471  and  _473
REMARK  185  A    between atoms: _473  and  _474
REMARK  186  A    between atoms: _473  and  _476
REMARK  187  A    between atoms: _476  and  _477
REMARK  188  A    between atoms: _480  and  _482
REMARK  189  A    between atoms: _482  and  _483
REMARK  190  A    between atoms: _482  and  _485
REMARK  191  A    between atoms: _485  and  _486
REMARK  192  A    between atoms: _486  and  _487
REMARK  193  A    between atoms: _489  and  _491
REMARK  194  A    between atoms: _491  and  _492
REMARK  195  A    between atoms: _491  and  _494
REMARK  196  A    between atoms: _494  and  _495
REMARK  197  A    between atoms: _495  and  _496
REMARK  198  A    between atoms: _501  and  _503
REMARK  199  A    between atoms: _503  and  _504
REMARK  200  A    between atoms: _503  and  _506
REMARK  201  A    between atoms: _506  and  _507
REMARK  202  A    between atoms: _507  and  _508
REMARK  203  A    between atoms: _511  and  _513
REMARK  204  A    between atoms: _513  and  _514
REMARK  205  A    between atoms: _513  and  _516
REMARK  206  A    between atoms: _516  and  _517
REMARK  207  A    between atoms: _520  and  _522
REMARK  208  A    between atoms: _522  and  _523
REMARK  209  A    between atoms: _522  and  _525
REMARK  210  A    between atoms: _525  and  _526
REMARK  211  A    between atoms: _529  and  _531
REMARK  212  A    between atoms: _531  and  _532
REMARK  213  A    between atoms: _531  and  _534
REMARK  214  A    between atoms: _534  and  _535
REMARK  215  A    between atoms: _543  and  _544
REMARK  216  A    between atoms: _543  and  _546
REMARK  217  A    between atoms: _546  and  _547
REMARK  218  A    between atoms: _547  and  _548
REMARK  219  A    between atoms: _551  and  _553
REMARK  220  A    between atoms: _553  and  _554
REMARK  221  A    between atoms: _553  and  _556
REMARK  222  A    between atoms: _556  and  _557
REMARK  223  A    between atoms: _562  and  _564
REMARK  224  A    between atoms: _564  and  _565
REMARK  225  A    between atoms: _564  and  _567
REMARK  226  A    between atoms: _567  and  _568
REMARK  227  A    between atoms: _568  and  _569
REMARK  228  A    between atoms: _569  and  _570
REMARK  229  A    between atoms: _579  and  _581
REMARK  230  A    between atoms: _581  and  _582
REMARK  231  A    between atoms: _581  and  _584
REMARK  232  A    between atoms: _584  and  _585
REMARK  233  A    between atoms: _590  and  _591
REMARK  234  A    between atoms: _590  and  _593
REMARK  235  A    between atoms: _593  and  _594
REMARK  236  A    between atoms: _597  and  _599
REMARK  237  A    between atoms: _599  and  _600
REMARK  238  A    between atoms: _599  and  _602
REMARK  239  A    between atoms: _602  and  _603
REMARK  240  A    between atoms: _603  and  _604
REMARK  241  A    between atoms: _604  and  _605
REMARK  242  A    between atoms: _614  and  _616
REMARK  243  A    between atoms: _616  and  _617
REMARK                            x       y       z     vdW  Elec       q    Type
REMARK                         _______ _______ _______ _____ _____    ______ ____
ROOT
ATOM      1  O   HOH     1      75.202   1.835 130.382  0.00  0.00    +0.000 OA
ENDROOT
TORSDOF 0
REMARK  Name = ../refined-set-2016/3upk/3upk_pocket.pdb
REMARK  243 active torsions:
REMARK  status: ('A' for Active; 'I' for Inactive)
REMARK    1  A    between atoms: _1  and  _3
REMARK    2  A    between atoms: _3  and  _4
REMARK    3  A    between atoms: _3  and  _6
REMARK    4  A    between atoms: _6  and  _7
REMARK    5  A    between atoms: _7  and  _8
REMARK    6  A    between atoms: _8  and  _9
REMARK    7  A    between atoms: _9  and  _10
REMARK    8  A    between atoms: _16  and  _17
REMARK    9  A    between atoms: _16  and  _19
REMARK   10  A    between atoms: _19  and  _20
REMARK   11  A    between atoms: _25  and  _27
REMARK   12  A    between atoms: _27  and  _28
REMARK   13  A    between atoms: _31  and  _33
REMARK   14  A    between atoms: _33  and  _34
REMARK   15  A    between atoms: _33  and  _36
REMARK   16  A    between atoms: _36  and  _37
REMARK   17  A    between atoms: _41  and  _42
REMARK   18  A    between atoms: _47  and  _49
REMARK   19  A    between atoms: _49  and  _50
REMARK   20  A    between atoms: _49  and  _52
REMARK   21  A    between atoms: _52  and  _53
REMARK   22  A    between atoms: _59  and  _61
REMARK   23  A    between atoms: _61  and  _62
REMARK   24  A    between atoms: _61  and  _64
REMARK   25  A    between atoms: _64  and  _65
REMARK   26  A    between atoms: _68  and  _70
REMARK   27  A    between atoms: _70  and  _71
REMARK   28  A    between atoms: _70  and  _73
REMARK   29  A    between atoms: _73  and  _74
REMARK   30  A    between atoms: _74  and  _75
REMARK   31  A    between atoms: _77  and  _79
REMARK   32  A    between atoms: _79  and  _80
REMARK   33  A    between atoms: _79  and  _82
REMARK   34  A    between atoms: _82  and  _83
REMARK   35  A    between atoms: _83  and  _84
REMARK   36  A    between atoms: _84  and  _85
REMARK   37  A    between atoms: _94  and  _96
REMARK   38  A    between atoms: _96  and  _97
REMARK   39  A    between atoms: _100  and  _102
REMARK   40  A    between atoms: _102  and  _103
REMARK   41  A    between atoms: _102  and  _105
REMARK   42  A    between atoms: _105  and  _106
REMARK   43  A    between atoms: _108  and  _110
REMARK   44  A    between atoms: _110  and  _111
REMARK   45  A    between atoms: _110  and  _113
REMARK   46  A    between atoms: _113  and  _114
REMARK   47  A    between atoms: _117  and  _119
REMARK   48  A    between atoms: _119  and  _120
REMARK   49  A    between atoms: _119  and  _122
REMARK   50  A    between atoms: _122  and  _123
REMARK   51  A    between atoms: _133  and  _135
REMARK   52  A    between atoms: _135  and  _136
REMARK   53  A    between atoms: _135  and  _138
REMARK   54  A    between atoms: _138  and  _139
REMARK   55  A    between atoms: _142  and  _144
REMARK   56  A    between atoms: _144  and  _145
REMARK   57  A    between atoms: _147  and  _149
REMARK   58  A    between atoms: _149  and  _150
REMARK   59  A    between atoms: _153  and  _155
REMARK   60  A    between atoms: _155  and  _156
REMARK   61  A    between atoms: _155  and  _158
REMARK   62  A    between atoms: _158  and  _159
REMARK   63  A    between atoms: _159  and  _160
REMARK   64  A    between atoms: _160  and  _161
REMARK   65  A    between atoms: _171  and  _172
REMARK   66  A    between atoms: _177  and  _179
REMARK   67  A    between atoms: _179  and  _180
REMARK   68  A    between atoms: _179  and  _182
REMARK   69  A    between atoms: _185  and  _187
REMARK   70  A    between atoms: _187  and  _188
REMARK   71  A    between atoms: _187  and  _190
REMARK   72  A    between atoms: _190  and  _191
REMARK   73  A    between atoms: _194  and  _196
REMARK   74  A    between atoms: _196  and  _197
REMARK   75  A    between atoms: _196  and  _199
REMARK   76  A    between atoms: _199  and  _200
REMARK   77  A    between atoms: _203  and  _205
REMARK   78  A    between atoms: _205  and  _206
REMARK   79  A    between atoms: _205  and  _208
REMARK   80  A    between atoms: _208  and  _209
REMARK   81  A    between atoms: _214  and  _216
REMARK   82  A    between atoms: _216  and  _217
REMARK   83  A    between atoms: _216  and  _219
REMARK   84  A    between atoms: _219  and  _220
REMARK   85  A    between atoms: _223  and  _225
REMARK   86  A    between atoms: _225  and  _226
REMARK   87  A    between atoms: _225  and  _228
REMARK   88  A    between atoms: _228  and  _229
REMARK   89  A    between atoms: _235  and  _237
REMARK   90  A    between atoms: _237  and  _238
REMARK   91  A    between atoms: _240  and  _242
REMARK   92  A    between atoms: _242  and  _243
REMARK   93  A    between atoms: _242  and  _245
REMARK   94  A    between atoms: _245  and  _246
REMARK   95  A    between atoms: _246  and  _247
REMARK   96  A    between atoms: _249  and  _251
REMARK   97  A    between atoms: _251  and  _252
REMARK   98  A    between atoms: _251  and  _254
REMARK   99  A    between atoms: _254  and  _255
REMARK  100  A    between atoms: _258  and  _260
REMARK  101  A    between atoms: _260  and  _261
REMARK  102  A    between atoms: _260  and  _263
REMARK  103  A    between atoms: _263  and  _264
REMARK  104  A    between atoms: _264  and  _265
REMARK  105  A    between atoms: _265  and  _266
REMARK  106  A    between atoms: _266  and  _267
REMARK  107  A    between atoms: _271  and  _273
REMARK  108  A    between atoms: _273  and  _274
REMARK  109  A    between atoms: _273  and  _276
REMARK  110  A    between atoms: _279  and  _281
REMARK  111  A    between atoms: _281  and  _282
REMARK  112  A    between atoms: _281  and  _284
REMARK  113  A    between atoms: _284  and  _285
REMARK  114  A    between atoms: _287  and  _289
REMARK  115  A    between atoms: _289  and  _290
REMARK  116  A    between atoms: _289  and  _292
REMARK  117  A    between atoms: _295  and  _297
REMARK  118  A    between atoms: _297  and  _298
REMARK  119  A    between atoms: _300  and  _302
REMARK  120  A    between atoms: _302  and  _303
REMARK  121  A    between atoms: _306  and  _308
REMARK  122  A    between atoms: _308  and  _309
REMARK  123  A    between atoms: _308  and  _311
REMARK  124  A    between atoms: _311  and  _312
REMARK  125  A    between atoms: _315  and  _317
REMARK  126  A    between atoms: _317  and  _318
REMARK  127  A    between atoms: _317  and  _320
REMARK  128  A    between atoms: _323  and  _325
REMARK  129  A    between atoms: _325  and  _326
REMARK  130  A    between atoms: _325  and  _328
REMARK  131  A    between atoms: _328  and  _329
REMARK  132  A    between atoms: _332  and  _334
REMARK  133  A    between atoms: _334  and  _335
REMARK  134  A    between atoms: _338  and  _340
REMARK  135  A    between atoms: _340  and  _341
REMARK  136  A    between atoms: _340  and  _343
REMARK  137  A    between atoms: _343  and  _344
REMARK  138  A    between atoms: _344  and  _345
REMARK  139  A    between atoms: _345  and  _346
REMARK  140  A    between atoms: _355  and  _357
REMARK  141  A    between atoms: _357  and  _358
REMARK  142  A    between atoms: _357  and  _360
REMARK  143  A    between atoms: _360  and  _361
REMARK  144  A    between atoms: _361  and  _362
REMARK  145  A    between atoms: _365  and  _367
REMARK  146  A    between atoms: _367  and  _368
REMARK  147  A    between atoms: _367  and  _370
REMARK  148  A    between atoms: _370  and  _371
REMARK  149  A    between atoms: _371  and  _372
REMARK  150  A    between atoms: _375  and  _377
REMARK  151  A    between atoms: _377  and  _378
REMARK  152  A    between atoms: _377  and  _380
REMARK  153  A    between atoms: _380  and  _381
REMARK  154  A    between atoms: _384  and  _386
REMARK  155  A    between atoms: _386  and  _387
REMARK  156  A    between atoms: _386  and  _389
REMARK  157  A    between atoms: _389  and  _390
REMARK  158  A    between atoms: _390  and  _391
REMARK  159  A    between atoms: _391  and  _392
REMARK  160  A    between atoms: _401  and  _403
REMARK  161  A    between atoms: _403  and  _404
REMARK  162  A    between atoms: _403  and  _406
REMARK  163  A    between atoms: _406  and  _407
REMARK  164  A    between atoms: _410  and  _412
REMARK  165  A    between atoms: _412  and  _413
REMARK  166  A    between atoms: _412  and  _415
REMARK  167  A    between atoms: _415  and  _416
REMARK  168  A    between atoms: _419  and  _421
REMARK  169  A    between atoms: _421  and  _422
REMARK  170  A    between atoms: _426  and  _427
REMARK  171  A    between atoms: _432  and  _434
REMARK  172  A    between atoms: _434  and  _435
REMARK  173  A    between atoms: _434  and  _437
REMARK  174  A    between atoms: _437  and  _438
REMARK  175  A    between atoms: _443  and  _445
REMARK  176  A    between atoms: _445  and  _446
REMARK  177  A    between atoms: _445  and  _448
REMARK  178  A    between atoms: _448  and  _449
REMARK  179  A    between atoms: _456  and  _457
REMARK  180  A    between atoms: _462  and  _464
REMARK  181  A    between atoms: _464  and  _465
REMARK  182  A    between atoms: _464  and  _467
REMARK  183  A    between atoms: _467  and  _468
REMARK  184  A    between atoms: _471  and  _473
REMARK  185  A    between atoms: _473  and  _474
REMARK  186  A    between atoms: _473  and  _476
REMARK  187  A    between atoms: _476  and  _477
REMARK  188  A    between atoms: _480  and  _482
REMARK  189  A    between atoms: _482  and  _483
REMARK  190  A    between atoms: _482  and  _485
REMARK  191  A    between atoms: _485  and  _486
REMARK  192  A    between atoms: _486  and  _487
REMARK  193  A    between atoms: _489  and  _491
REMARK  194  A    between atoms: _491  and  _492
REMARK  195  A    between atoms: _491  and  _494
REMARK  196  A    between atoms: _494  and  _495
REMARK  197  A    between atoms: _495  and  _496
REMARK  198  A    between atoms: _501  and  _503
REMARK  199  A    between atoms: _503  and  _504
REMARK  200  A    between atoms: _503  and  _506
REMARK  201  A    between atoms: _506  and  _507
REMARK  202  A    between atoms: _507  and  _508
REMARK  203  A    between atoms: _511  and  _513
REMARK  204  A    between atoms: _513  and  _514
REMARK  205  A    between atoms: _513  and  _516
REMARK  206  A    between atoms: _516  and  _517
REMARK  207  A    between atoms: _520  and  _522
REMARK  208  A    between atoms: _522  and  _523
REMARK  209  A    between atoms: _522  and  _525
REMARK  210  A    between atoms: _525  and  _526
REMARK  211  A    between atoms: _529  and  _531
REMARK  212  A    between atoms: _531  and  _532
REMARK  213  A    between atoms: _531  and  _534
REMARK  214  A    between atoms: _534  and  _535
REMARK  215  A    between atoms: _543  and  _544
REMARK  216  A    between atoms: _543  and  _546
REMARK  217  A    between atoms: _546  and  _547
REMARK  218  A    between atoms: _547  and  _548
REMARK  219  A    between atoms: _551  and  _553
REMARK  220  A    between atoms: _553  and  _554
REMARK  221  A    between atoms: _553  and  _556
REMARK  222  A    between atoms: _556  and  _557
REMARK  223  A    between atoms: _562  and  _564
REMARK  224  A    between atoms: _564  and  _565
REMARK  225  A    between atoms: _564  and  _567
REMARK  226  A    between atoms: _567  and  _568
REMARK  227  A    between atoms: _568  and  _569
REMARK  228  A    between atoms: _569  and  _570
REMARK  229  A    between atoms: _579  and  _581
REMARK  230  A    between atoms: _581  and  _582
REMARK  231  A    between atoms: _581  and  _584
REMARK  232  A    between atoms: _584  and  _585
REMARK  233  A    between atoms: _590  and  _591
REMARK  234  A    between atoms: _590  and  _593
REMARK  235  A    between atoms: _593  and  _594
REMARK  236  A    between atoms: _597  and  _599
REMARK  237  A    between atoms: _599  and  _600
REMARK  238  A    between atoms: _599  and  _602
REMARK  239  A    between atoms: _602  and  _603
REMARK  240  A    between atoms: _603  and  _604
REMARK  241  A    between atoms: _604  and  _605
REMARK  242  A    between atoms: _614  and  _616
REMARK  243  A    between atoms: _616  and  _617
REMARK                            x       y       z     vdW  Elec       q    Type
REMARK                         _______ _______ _______ _____ _____    ______ ____
ROOT
ATOM      1  O   HOH     1      72.915   3.159 129.184  0.00  0.00    +0.000 OA
ENDROOT
TORSDOF 0
REMARK  Name = ../refined-set-2016/3upk/3upk_pocket.pdb
REMARK  243 active torsions:
REMARK  status: ('A' for Active; 'I' for Inactive)
REMARK    1  A    between atoms: _1  and  _3
REMARK    2  A    between atoms: _3  and  _4
REMARK    3  A    between atoms: _3  and  _6
REMARK    4  A    between atoms: _6  and  _7
REMARK    5  A    between atoms: _7  and  _8
REMARK    6  A    between atoms: _8  and  _9
REMARK    7  A    between atoms: _9  and  _10
REMARK    8  A    between atoms: _16  and  _17
REMARK    9  A    between atoms: _16  and  _19
REMARK   10  A    between atoms: _19  and  _20
REMARK   11  A    between atoms: _25  and  _27
REMARK   12  A    between atoms: _27  and  _28
REMARK   13  A    between atoms: _31  and  _33
REMARK   14  A    between atoms: _33  and  _34
REMARK   15  A    between atoms: _33  and  _36
REMARK   16  A    between atoms: _36  and  _37
REMARK   17  A    between atoms: _41  and  _42
REMARK   18  A    between atoms: _47  and  _49
REMARK   19  A    between atoms: _49  and  _50
REMARK   20  A    between atoms: _49  and  _52
REMARK   21  A    between atoms: _52  and  _53
REMARK   22  A    between atoms: _59  and  _61
REMARK   23  A    between atoms: _61  and  _62
REMARK   24  A    between atoms: _61  and  _64
REMARK   25  A    between atoms: _64  and  _65
REMARK   26  A    between atoms: _68  and  _70
REMARK   27  A    between atoms: _70  and  _71
REMARK   28  A    between atoms: _70  and  _73
REMARK   29  A    between atoms: _73  and  _74
REMARK   30  A    between atoms: _74  and  _75
REMARK   31  A    between atoms: _77  and  _79
REMARK   32  A    between atoms: _79  and  _80
REMARK   33  A    between atoms: _79  and  _82
REMARK   34  A    between atoms: _82  and  _83
REMARK   35  A    between atoms: _83  and  _84
REMARK   36  A    between atoms: _84  and  _85
REMARK   37  A    between atoms: _94  and  _96
REMARK   38  A    between atoms: _96  and  _97
REMARK   39  A    between atoms: _100  and  _102
REMARK   40  A    between atoms: _102  and  _103
REMARK   41  A    between atoms: _102  and  _105
REMARK   42  A    between atoms: _105  and  _106
REMARK   43  A    between atoms: _108  and  _110
REMARK   44  A    between atoms: _110  and  _111
REMARK   45  A    between atoms: _110  and  _113
REMARK   46  A    between atoms: _113  and  _114
REMARK   47  A    between atoms: _117  and  _119
REMARK   48  A    between atoms: _119  and  _120
REMARK   49  A    between atoms: _119  and  _122
REMARK   50  A    between atoms: _122  and  _123
REMARK   51  A    between atoms: _133  and  _135
REMARK   52  A    between atoms: _135  and  _136
REMARK   53  A    between atoms: _135  and  _138
REMARK   54  A    between atoms: _138  and  _139
REMARK   55  A    between atoms: _142  and  _144
REMARK   56  A    between atoms: _144  and  _145
REMARK   57  A    between atoms: _147  and  _149
REMARK   58  A    between atoms: _149  and  _150
REMARK   59  A    between atoms: _153  and  _155
REMARK   60  A    between atoms: _155  and  _156
REMARK   61  A    between atoms: _155  and  _158
REMARK   62  A    between atoms: _158  and  _159
REMARK   63  A    between atoms: _159  and  _160
REMARK   64  A    between atoms: _160  and  _161
REMARK   65  A    between atoms: _171  and  _172
REMARK   66  A    between atoms: _177  and  _179
REMARK   67  A    between atoms: _179  and  _180
REMARK   68  A    between atoms: _179  and  _182
REMARK   69  A    between atoms: _185  and  _187
REMARK   70  A    between atoms: _187  and  _188
REMARK   71  A    between atoms: _187  and  _190
REMARK   72  A    between atoms: _190  and  _191
REMARK   73  A    between atoms: _194  and  _196
REMARK   74  A    between atoms: _196  and  _197
REMARK   75  A    between atoms: _196  and  _199
REMARK   76  A    between atoms: _199  and  _200
REMARK   77  A    between atoms: _203  and  _205
REMARK   78  A    between atoms: _205  and  _206
REMARK   79  A    between atoms: _205  and  _208
REMARK   80  A    between atoms: _208  and  _209
REMARK   81  A    between atoms: _214  and  _216
REMARK   82  A    between atoms: _216  and  _217
REMARK   83  A    between atoms: _216  and  _219
REMARK   84  A    between atoms: _219  and  _220
REMARK   85  A    between atoms: _223  and  _225
REMARK   86  A    between atoms: _225  and  _226
REMARK   87  A    between atoms: _225  and  _228
REMARK   88  A    between atoms: _228  and  _229
REMARK   89  A    between atoms: _235  and  _237
REMARK   90  A    between atoms: _237  and  _238
REMARK   91  A    between atoms: _240  and  _242
REMARK   92  A    between atoms: _242  and  _243
REMARK   93  A    between atoms: _242  and  _245
REMARK   94  A    between atoms: _245  and  _246
REMARK   95  A    between atoms: _246  and  _247
REMARK   96  A    between atoms: _249  and  _251
REMARK   97  A    between atoms: _251  and  _252
REMARK   98  A    between atoms: _251  and  _254
REMARK   99  A    between atoms: _254  and  _255
REMARK  100  A    between atoms: _258  and  _260
REMARK  101  A    between atoms: _260  and  _261
REMARK  102  A    between atoms: _260  and  _263
REMARK  103  A    between atoms: _263  and  _264
REMARK  104  A    between atoms: _264  and  _265
REMARK  105  A    between atoms: _265  and  _266
REMARK  106  A    between atoms: _266  and  _267
REMARK  107  A    between atoms: _271  and  _273
REMARK  108  A    between atoms: _273  and  _274
REMARK  109  A    between atoms: _273  and  _276
REMARK  110  A    between atoms: _279  and  _281
REMARK  111  A    between atoms: _281  and  _282
REMARK  112  A    between atoms: _281  and  _284
REMARK  113  A    between atoms: _284  and  _285
REMARK  114  A    between atoms: _287  and  _289
REMARK  115  A    between atoms: _289  and  _290
REMARK  116  A    between atoms: _289  and  _292
REMARK  117  A    between atoms: _295  and  _297
REMARK  118  A    between atoms: _297  and  _298
REMARK  119  A    between atoms: _300  and  _302
REMARK  120  A    between atoms: _302  and  _303
REMARK  121  A    between atoms: _306  and  _308
REMARK  122  A    between atoms: _308  and  _309
REMARK  123  A    between atoms: _308  and  _311
REMARK  124  A    between atoms: _311  and  _312
REMARK  125  A    between atoms: _315  and  _317
REMARK  126  A    between atoms: _317  and  _318
REMARK  127  A    between atoms: _317  and  _320
REMARK  128  A    between atoms: _323  and  _325
REMARK  129  A    between atoms: _325  and  _326
REMARK  130  A    between atoms: _325  and  _328
REMARK  131  A    between atoms: _328  and  _329
REMARK  132  A    between atoms: _332  and  _334
REMARK  133  A    between atoms: _334  and  _335
REMARK  134  A    between atoms: _338  and  _340
REMARK  135  A    between atoms: _340  and  _341
REMARK  136  A    between atoms: _340  and  _343
REMARK  137  A    between atoms: _343  and  _344
REMARK  138  A    between atoms: _344  and  _345
REMARK  139  A    between atoms: _345  and  _346
REMARK  140  A    between atoms: _355  and  _357
REMARK  141  A    between atoms: _357  and  _358
REMARK  142  A    between atoms: _357  and  _360
REMARK  143  A    between atoms: _360  and  _361
REMARK  144  A    between atoms: _361  and  _362
REMARK  145  A    between atoms: _365  and  _367
REMARK  146  A    between atoms: _367  and  _368
REMARK  147  A    between atoms: _367  and  _370
REMARK  148  A    between atoms: _370  and  _371
REMARK  149  A    between atoms: _371  and  _372
REMARK  150  A    between atoms: _375  and  _377
REMARK  151  A    between atoms: _377  and  _378
REMARK  152  A    between atoms: _377  and  _380
REMARK  153  A    between atoms: _380  and  _381
REMARK  154  A    between atoms: _384  and  _386
REMARK  155  A    between atoms: _386  and  _387
REMARK  156  A    between atoms: _386  and  _389
REMARK  157  A    between atoms: _389  and  _390
REMARK  158  A    between atoms: _390  and  _391
REMARK  159  A    between atoms: _391  and  _392
REMARK  160  A    between atoms: _401  and  _403
REMARK  161  A    between atoms: _403  and  _404
REMARK  162  A    between atoms: _403  and  _406
REMARK  163  A    between atoms: _406  and  _407
REMARK  164  A    between atoms: _410  and  _412
REMARK  165  A    between atoms: _412  and  _413
REMARK  166  A    between atoms: _412  and  _415
REMARK  167  A    between atoms: _415  and  _416
REMARK  168  A    between atoms: _419  and  _421
REMARK  169  A    between atoms: _421  and  _422
REMARK  170  A    between atoms: _426  and  _427
REMARK  171  A    between atoms: _432  and  _434
REMARK  172  A    between atoms: _434  and  _435
REMARK  173  A    between atoms: _434  and  _437
REMARK  174  A    between atoms: _437  and  _438
REMARK  175  A    between atoms: _443  and  _445
REMARK  176  A    between atoms: _445  and  _446
REMARK  177  A    between atoms: _445  and  _448
REMARK  178  A    between atoms: _448  and  _449
REMARK  179  A    between atoms: _456  and  _457
REMARK  180  A    between atoms: _462  and  _464
REMARK  181  A    between atoms: _464  and  _465
REMARK  182  A    between atoms: _464  and  _467
REMARK  183  A    between atoms: _467  and  _468
REMARK  184  A    between atoms: _471  and  _473
REMARK  185  A    between atoms: _473  and  _474
REMARK  186  A    between atoms: _473  and  _476
REMARK  187  A    between atoms: _476  and  _477
REMARK  188  A    between atoms: _480  and  _482
REMARK  189  A    between atoms: _482  and  _483
REMARK  190  A    between atoms: _482  and  _485
REMARK  191  A    between atoms: _485  and  _486
REMARK  192  A    between atoms: _486  and  _487
REMARK  193  A    between atoms: _489  and  _491
REMARK  194  A    between atoms: _491  and  _492
REMARK  195  A    between atoms: _491  and  _494
REMARK  196  A    between atoms: _494  and  _495
REMARK  197  A    between atoms: _495  and  _496
REMARK  198  A    between atoms: _501  and  _503
REMARK  199  A    between atoms: _503  and  _504
REMARK  200  A    between atoms: _503  and  _506
REMARK  201  A    between atoms: _506  and  _507
REMARK  202  A    between atoms: _507  and  _508
REMARK  203  A    between atoms: _511  and  _513
REMARK  204  A    between atoms: _513  and  _514
REMARK  205  A    between atoms: _513  and  _516
REMARK  206  A    between atoms: _516  and  _517
REMARK  207  A    between atoms: _520  and  _522
REMARK  208  A    between atoms: _522  and  _523
REMARK  209  A    between atoms: _522  and  _525
REMARK  210  A    between atoms: _525  and  _526
REMARK  211  A    between atoms: _529  and  _531
REMARK  212  A    between atoms: _531  and  _532
REMARK  213  A    between atoms: _531  and  _534
REMARK  214  A    between atoms: _534  and  _535
REMARK  215  A    between atoms: _543  and  _544
REMARK  216  A    between atoms: _543  and  _546
REMARK  217  A    between atoms: _546  and  _547
REMARK  218  A    between atoms: _547  and  _548
REMARK  219  A    between atoms: _551  and  _553
REMARK  220  A    between atoms: _553  and  _554
REMARK  221  A    between atoms: _553  and  _556
REMARK  222  A    between atoms: _556  and  _557
REMARK  223  A    between atoms: _562  and  _564
REMARK  224  A    between atoms: _564  and  _565
REMARK  225  A    between atoms: _564  and  _567
REMARK  226  A    between atoms: _567  and  _568
REMARK  227  A    between atoms: _568  and  _569
REMARK  228  A    between atoms: _569  and  _570
REMARK  229  A    between atoms: _579  and  _581
REMARK  230  A    between atoms: _581  and  _582
REMARK  231  A    between atoms: _581  and  _584
REMARK  232  A    between atoms: _584  and  _585
REMARK  233  A    between atoms: _590  and  _591
REMARK  234  A    between atoms: _590  and  _593
REMARK  235  A    between atoms: _593  and  _594
REMARK  236  A    between atoms: _597  and  _599
REMARK  237  A    between atoms: _599  and  _600
REMARK  238  A    between atoms: _599  and  _602
REMARK  239  A    between atoms: _602  and  _603
REMARK  240  A    between atoms: _603  and  _604
REMARK  241  A    between atoms: _604  and  _605
REMARK  242  A    between atoms: _614  and  _616
REMARK  243  A    between atoms: _616  and  _617
REMARK                            x       y       z     vdW  Elec       q    Type
REMARK                         _______ _______ _______ _____ _____    ______ ____
ROOT
ATOM      1  O   HOH     1      85.227   0.869 116.503  0.00  0.00    +0.000 OA
ENDROOT
TORSDOF 0
REMARK  Name = ../refined-set-2016/3upk/3upk_pocket.pdb
REMARK  243 active torsions:
REMARK  status: ('A' for Active; 'I' for Inactive)
REMARK    1  A    between atoms: _1  and  _3
REMARK    2  A    between atoms: _3  and  _4
REMARK    3  A    between atoms: _3  and  _6
REMARK    4  A    between atoms: _6  and  _7
REMARK    5  A    between atoms: _7  and  _8
REMARK    6  A    between atoms: _8  and  _9
REMARK    7  A    between atoms: _9  and  _10
REMARK    8  A    between atoms: _16  and  _17
REMARK    9  A    between atoms: _16  and  _19
REMARK   10  A    between atoms: _19  and  _20
REMARK   11  A    between atoms: _25  and  _27
REMARK   12  A    between atoms: _27  and  _28
REMARK   13  A    between atoms: _31  and  _33
REMARK   14  A    between atoms: _33  and  _34
REMARK   15  A    between atoms: _33  and  _36
REMARK   16  A    between atoms: _36  and  _37
REMARK   17  A    between atoms: _41  and  _42
REMARK   18  A    between atoms: _47  and  _49
REMARK   19  A    between atoms: _49  and  _50
REMARK   20  A    between atoms: _49  and  _52
REMARK   21  A    between atoms: _52  and  _53
REMARK   22  A    between atoms: _59  and  _61
REMARK   23  A    between atoms: _61  and  _62
REMARK   24  A    between atoms: _61  and  _64
REMARK   25  A    between atoms: _64  and  _65
REMARK   26  A    between atoms: _68  and  _70
REMARK   27  A    between atoms: _70  and  _71
REMARK   28  A    between atoms: _70  and  _73
REMARK   29  A    between atoms: _73  and  _74
REMARK   30  A    between atoms: _74  and  _75
REMARK   31  A    between atoms: _77  and  _79
REMARK   32  A    between atoms: _79  and  _80
REMARK   33  A    between atoms: _79  and  _82
REMARK   34  A    between atoms: _82  and  _83
REMARK   35  A    between atoms: _83  and  _84
REMARK   36  A    between atoms: _84  and  _85
REMARK   37  A    between atoms: _94  and  _96
REMARK   38  A    between atoms: _96  and  _97
REMARK   39  A    between atoms: _100  and  _102
REMARK   40  A    between atoms: _102  and  _103
REMARK   41  A    between atoms: _102  and  _105
REMARK   42  A    between atoms: _105  and  _106
REMARK   43  A    between atoms: _108  and  _110
REMARK   44  A    between atoms: _110  and  _111
REMARK   45  A    between atoms: _110  and  _113
REMARK   46  A    between atoms: _113  and  _114
REMARK   47  A    between atoms: _117  and  _119
REMARK   48  A    between atoms: _119  and  _120
REMARK   49  A    between atoms: _119  and  _122
REMARK   50  A    between atoms: _122  and  _123
REMARK   51  A    between atoms: _133  and  _135
REMARK   52  A    between atoms: _135  and  _136
REMARK   53  A    between atoms: _135  and  _138
REMARK   54  A    between atoms: _138  and  _139
REMARK   55  A    between atoms: _142  and  _144
REMARK   56  A    between atoms: _144  and  _145
REMARK   57  A    between atoms: _147  and  _149
REMARK   58  A    between atoms: _149  and  _150
REMARK   59  A    between atoms: _153  and  _155
REMARK   60  A    between atoms: _155  and  _156
REMARK   61  A    between atoms: _155  and  _158
REMARK   62  A    between atoms: _158  and  _159
REMARK   63  A    between atoms: _159  and  _160
REMARK   64  A    between atoms: _160  and  _161
REMARK   65  A    between atoms: _171  and  _172
REMARK   66  A    between atoms: _177  and  _179
REMARK   67  A    between atoms: _179  and  _180
REMARK   68  A    between atoms: _179  and  _182
REMARK   69  A    between atoms: _185  and  _187
REMARK   70  A    between atoms: _187  and  _188
REMARK   71  A    between atoms: _187  and  _190
REMARK   72  A    between atoms: _190  and  _191
REMARK   73  A    between atoms: _194  and  _196
REMARK   74  A    between atoms: _196  and  _197
REMARK   75  A    between atoms: _196  and  _199
REMARK   76  A    between atoms: _199  and  _200
REMARK   77  A    between atoms: _203  and  _205
REMARK   78  A    between atoms: _205  and  _206
REMARK   79  A    between atoms: _205  and  _208
REMARK   80  A    between atoms: _208  and  _209
REMARK   81  A    between atoms: _214  and  _216
REMARK   82  A    between atoms: _216  and  _217
REMARK   83  A    between atoms: _216  and  _219
REMARK   84  A    between atoms: _219  and  _220
REMARK   85  A    between atoms: _223  and  _225
REMARK   86  A    between atoms: _225  and  _226
REMARK   87  A    between atoms: _225  and  _228
REMARK   88  A    between atoms: _228  and  _229
REMARK   89  A    between atoms: _235  and  _237
REMARK   90  A    between atoms: _237  and  _238
REMARK   91  A    between atoms: _240  and  _242
REMARK   92  A    between atoms: _242  and  _243
REMARK   93  A    between atoms: _242  and  _245
REMARK   94  A    between atoms: _245  and  _246
REMARK   95  A    between atoms: _246  and  _247
REMARK   96  A    between atoms: _249  and  _251
REMARK   97  A    between atoms: _251  and  _252
REMARK   98  A    between atoms: _251  and  _254
REMARK   99  A    between atoms: _254  and  _255
REMARK  100  A    between atoms: _258  and  _260
REMARK  101  A    between atoms: _260  and  _261
REMARK  102  A    between atoms: _260  and  _263
REMARK  103  A    between atoms: _263  and  _264
REMARK  104  A    between atoms: _264  and  _265
REMARK  105  A    between atoms: _265  and  _266
REMARK  106  A    between atoms: _266  and  _267
REMARK  107  A    between atoms: _271  and  _273
REMARK  108  A    between atoms: _273  and  _274
REMARK  109  A    between atoms: _273  and  _276
REMARK  110  A    between atoms: _279  and  _281
REMARK  111  A    between atoms: _281  and  _282
REMARK  112  A    between atoms: _281  and  _284
REMARK  113  A    between atoms: _284  and  _285
REMARK  114  A    between atoms: _287  and  _289
REMARK  115  A    between atoms: _289  and  _290
REMARK  116  A    between atoms: _289  and  _292
REMARK  117  A    between atoms: _295  and  _297
REMARK  118  A    between atoms: _297  and  _298
REMARK  119  A    between atoms: _300  and  _302
REMARK  120  A    between atoms: _302  and  _303
REMARK  121  A    between atoms: _306  and  _308
REMARK  122  A    between atoms: _308  and  _309
REMARK  123  A    between atoms: _308  and  _311
REMARK  124  A    between atoms: _311  and  _312
REMARK  125  A    between atoms: _315  and  _317
REMARK  126  A    between atoms: _317  and  _318
REMARK  127  A    between atoms: _317  and  _320
REMARK  128  A    between atoms: _323  and  _325
REMARK  129  A    between atoms: _325  and  _326
REMARK  130  A    between atoms: _325  and  _328
REMARK  131  A    between atoms: _328  and  _329
REMARK  132  A    between atoms: _332  and  _334
REMARK  133  A    between atoms: _334  and  _335
REMARK  134  A    between atoms: _338  and  _340
REMARK  135  A    between atoms: _340  and  _341
REMARK  136  A    between atoms: _340  and  _343
REMARK  137  A    between atoms: _343  and  _344
REMARK  138  A    between atoms: _344  and  _345
REMARK  139  A    between atoms: _345  and  _346
REMARK  140  A    between atoms: _355  and  _357
REMARK  141  A    between atoms: _357  and  _358
REMARK  142  A    between atoms: _357  and  _360
REMARK  143  A    between atoms: _360  and  _361
REMARK  144  A    between atoms: _361  and  _362
REMARK  145  A    between atoms: _365  and  _367
REMARK  146  A    between atoms: _367  and  _368
REMARK  147  A    between atoms: _367  and  _370
REMARK  148  A    between atoms: _370  and  _371
REMARK  149  A    between atoms: _371  and  _372
REMARK  150  A    between atoms: _375  and  _377
REMARK  151  A    between atoms: _377  and  _378
REMARK  152  A    between atoms: _377  and  _380
REMARK  153  A    between atoms: _380  and  _381
REMARK  154  A    between atoms: _384  and  _386
REMARK  155  A    between atoms: _386  and  _387
REMARK  156  A    between atoms: _386  and  _389
REMARK  157  A    between atoms: _389  and  _390
REMARK  158  A    between atoms: _390  and  _391
REMARK  159  A    between atoms: _391  and  _392
REMARK  160  A    between atoms: _401  and  _403
REMARK  161  A    between atoms: _403  and  _404
REMARK  162  A    between atoms: _403  and  _406
REMARK  163  A    between atoms: _406  and  _407
REMARK  164  A    between atoms: _410  and  _412
REMARK  165  A    between atoms: _412  and  _413
REMARK  166  A    between atoms: _412  and  _415
REMARK  167  A    between atoms: _415  and  _416
REMARK  168  A    between atoms: _419  and  _421
REMARK  169  A    between atoms: _421  and  _422
REMARK  170  A    between atoms: _426  and  _427
REMARK  171  A    between atoms: _432  and  _434
REMARK  172  A    between atoms: _434  and  _435
REMARK  173  A    between atoms: _434  and  _437
REMARK  174  A    between atoms: _437  and  _438
REMARK  175  A    between atoms: _443  and  _445
REMARK  176  A    between atoms: _445  and  _446
REMARK  177  A    between atoms: _445  and  _448
REMARK  178  A    between atoms: _448  and  _449
REMARK  179  A    between atoms: _456  and  _457
REMARK  180  A    between atoms: _462  and  _464
REMARK  181  A    between atoms: _464  and  _465
REMARK  182  A    between atoms: _464  and  _467
REMARK  183  A    between atoms: _467  and  _468
REMARK  184  A    between atoms: _471  and  _473
REMARK  185  A    between atoms: _473  and  _474
REMARK  186  A    between atoms: _473  and  _476
REMARK  187  A    between atoms: _476  and  _477
REMARK  188  A    between atoms: _480  and  _482
REMARK  189  A    between atoms: _482  and  _483
REMARK  190  A    between atoms: _482  and  _485
REMARK  191  A    between atoms: _485  and  _486
REMARK  192  A    between atoms: _486  and  _487
REMARK  193  A    between atoms: _489  and  _491
REMARK  194  A    between atoms: _491  and  _492
REMARK  195  A    between atoms: _491  and  _494
REMARK  196  A    between atoms: _494  and  _495
REMARK  197  A    between atoms: _495  and  _496
REMARK  198  A    between atoms: _501  and  _503
REMARK  199  A    between atoms: _503  and  _504
REMARK  200  A    between atoms: _503  and  _506
REMARK  201  A    between atoms: _506  and  _507
REMARK  202  A    between atoms: _507  and  _508
REMARK  203  A    between atoms: _511  and  _513
REMARK  204  A    between atoms: _513  and  _514
REMARK  205  A    between atoms: _513  and  _516
REMARK  206  A    between atoms: _516  and  _517
REMARK  207  A    between atoms: _520  and  _522
REMARK  208  A    between atoms: _522  and  _523
REMARK  209  A    between atoms: _522  and  _525
REMARK  210  A    between atoms: _525  and  _526
REMARK  211  A    between atoms: _529  and  _531
REMARK  212  A    between atoms: _531  and  _532
REMARK  213  A    between atoms: _531  and  _534
REMARK  214  A    between atoms: _534  and  _535
REMARK  215  A    between atoms: _543  and  _544
REMARK  216  A    between atoms: _543  and  _546
REMARK  217  A    between atoms: _546  and  _547
REMARK  218  A    between atoms: _547  and  _548
REMARK  219  A    between atoms: _551  and  _553
REMARK  220  A    between atoms: _553  and  _554
REMARK  221  A    between atoms: _553  and  _556
REMARK  222  A    between atoms: _556  and  _557
REMARK  223  A    between atoms: _562  and  _564
REMARK  224  A    between atoms: _564  and  _565
REMARK  225  A    between atoms: _564  and  _567
REMARK  226  A    between atoms: _567  and  _568
REMARK  227  A    between atoms: _568  and  _569
REMARK  228  A    between atoms: _569  and  _570
REMARK  229  A    between atoms: _579  and  _581
REMARK  230  A    between atoms: _581  and  _582
REMARK  231  A    between atoms: _581  and  _584
REMARK  232  A    between atoms: _584  and  _585
REMARK  233  A    between atoms: _590  and  _591
REMARK  234  A    between atoms: _590  and  _593
REMARK  235  A    between atoms: _593  and  _594
REMARK  236  A    between atoms: _597  and  _599
REMARK  237  A    between atoms: _599  and  _600
REMARK  238  A    between atoms: _599  and  _602
REMARK  239  A    between atoms: _602  and  _603
REMARK  240  A    between atoms: _603  and  _604
REMARK  241  A    between atoms: _604  and  _605
REMARK  242  A    between atoms: _614  and  _616
REMARK  243  A    between atoms: _616  and  _617
REMARK                            x       y       z     vdW  Elec       q    Type
REMARK                         _______ _______ _______ _____ _____    ______ ____
ROOT
ATOM      1  O   HOH     1      83.794   4.039 135.531  0.00  0.00    +0.000 OA
ENDROOT
TORSDOF 0
REMARK  Name = ../refined-set-2016/3upk/3upk_pocket.pdb
REMARK  243 active torsions:
REMARK  status: ('A' for Active; 'I' for Inactive)
REMARK    1  A    between atoms: _1  and  _3
REMARK    2  A    between atoms: _3  and  _4
REMARK    3  A    between atoms: _3  and  _6
REMARK    4  A    between atoms: _6  and  _7
REMARK    5  A    between atoms: _7  and  _8
REMARK    6  A    between atoms: _8  and  _9
REMARK    7  A    between atoms: _9  and  _10
REMARK    8  A    between atoms: _16  and  _17
REMARK    9  A    between atoms: _16  and  _19
REMARK   10  A    between atoms: _19  and  _20
REMARK   11  A    between atoms: _25  and  _27
REMARK   12  A    between atoms: _27  and  _28
REMARK   13  A    between atoms: _31  and  _33
REMARK   14  A    between atoms: _33  and  _34
REMARK   15  A    between atoms: _33  and  _36
REMARK   16  A    between atoms: _36  and  _37
REMARK   17  A    between atoms: _41  and  _42
REMARK   18  A    between atoms: _47  and  _49
REMARK   19  A    between atoms: _49  and  _50
REMARK   20  A    between atoms: _49  and  _52
REMARK   21  A    between atoms: _52  and  _53
REMARK   22  A    between atoms: _59  and  _61
REMARK   23  A    between atoms: _61  and  _62
REMARK   24  A    between atoms: _61  and  _64
REMARK   25  A    between atoms: _64  and  _65
REMARK   26  A    between atoms: _68  and  _70
REMARK   27  A    between atoms: _70  and  _71
REMARK   28  A    between atoms: _70  and  _73
REMARK   29  A    between atoms: _73  and  _74
REMARK   30  A    between atoms: _74  and  _75
REMARK   31  A    between atoms: _77  and  _79
REMARK   32  A    between atoms: _79  and  _80
REMARK   33  A    between atoms: _79  and  _82
REMARK   34  A    between atoms: _82  and  _83
REMARK   35  A    between atoms: _83  and  _84
REMARK   36  A    between atoms: _84  and  _85
REMARK   37  A    between atoms: _94  and  _96
REMARK   38  A    between atoms: _96  and  _97
REMARK   39  A    between atoms: _100  and  _102
REMARK   40  A    between atoms: _102  and  _103
REMARK   41  A    between atoms: _102  and  _105
REMARK   42  A    between atoms: _105  and  _106
REMARK   43  A    between atoms: _108  and  _110
REMARK   44  A    between atoms: _110  and  _111
REMARK   45  A    between atoms: _110  and  _113
REMARK   46  A    between atoms: _113  and  _114
REMARK   47  A    between atoms: _117  and  _119
REMARK   48  A    between atoms: _119  and  _120
REMARK   49  A    between atoms: _119  and  _122
REMARK   50  A    between atoms: _122  and  _123
REMARK   51  A    between atoms: _133  and  _135
REMARK   52  A    between atoms: _135  and  _136
REMARK   53  A    between atoms: _135  and  _138
REMARK   54  A    between atoms: _138  and  _139
REMARK   55  A    between atoms: _142  and  _144
REMARK   56  A    between atoms: _144  and  _145
REMARK   57  A    between atoms: _147  and  _149
REMARK   58  A    between atoms: _149  and  _150
REMARK   59  A    between atoms: _153  and  _155
REMARK   60  A    between atoms: _155  and  _156
REMARK   61  A    between atoms: _155  and  _158
REMARK   62  A    between atoms: _158  and  _159
REMARK   63  A    between atoms: _159  and  _160
REMARK   64  A    between atoms: _160  and  _161
REMARK   65  A    between atoms: _171  and  _172
REMARK   66  A    between atoms: _177  and  _179
REMARK   67  A    between atoms: _179  and  _180
REMARK   68  A    between atoms: _179  and  _182
REMARK   69  A    between atoms: _185  and  _187
REMARK   70  A    between atoms: _187  and  _188
REMARK   71  A    between atoms: _187  and  _190
REMARK   72  A    between atoms: _190  and  _191
REMARK   73  A    between atoms: _194  and  _196
REMARK   74  A    between atoms: _196  and  _197
REMARK   75  A    between atoms: _196  and  _199
REMARK   76  A    between atoms: _199  and  _200
REMARK   77  A    between atoms: _203  and  _205
REMARK   78  A    between atoms: _205  and  _206
REMARK   79  A    between atoms: _205  and  _208
REMARK   80  A    between atoms: _208  and  _209
REMARK   81  A    between atoms: _214  and  _216
REMARK   82  A    between atoms: _216  and  _217
REMARK   83  A    between atoms: _216  and  _219
REMARK   84  A    between atoms: _219  and  _220
REMARK   85  A    between atoms: _223  and  _225
REMARK   86  A    between atoms: _225  and  _226
REMARK   87  A    between atoms: _225  and  _228
REMARK   88  A    between atoms: _228  and  _229
REMARK   89  A    between atoms: _235  and  _237
REMARK   90  A    between atoms: _237  and  _238
REMARK   91  A    between atoms: _240  and  _242
REMARK   92  A    between atoms: _242  and  _243
REMARK   93  A    between atoms: _242  and  _245
REMARK   94  A    between atoms: _245  and  _246
REMARK   95  A    between atoms: _246  and  _247
REMARK   96  A    between atoms: _249  and  _251
REMARK   97  A    between atoms: _251  and  _252
REMARK   98  A    between atoms: _251  and  _254
REMARK   99  A    between atoms: _254  and  _255
REMARK  100  A    between atoms: _258  and  _260
REMARK  101  A    between atoms: _260  and  _261
REMARK  102  A    between atoms: _260  and  _263
REMARK  103  A    between atoms: _263  and  _264
REMARK  104  A    between atoms: _264  and  _265
REMARK  105  A    between atoms: _265  and  _266
REMARK  106  A    between atoms: _266  and  _267
REMARK  107  A    between atoms: _271  and  _273
REMARK  108  A    between atoms: _273  and  _274
REMARK  109  A    between atoms: _273  and  _276
REMARK  110  A    between atoms: _279  and  _281
REMARK  111  A    between atoms: _281  and  _282
REMARK  112  A    between atoms: _281  and  _284
REMARK  113  A    between atoms: _284  and  _285
REMARK  114  A    between atoms: _287  and  _289
REMARK  115  A    between atoms: _289  and  _290
REMARK  116  A    between atoms: _289  and  _292
REMARK  117  A    between atoms: _295  and  _297
REMARK  118  A    between atoms: _297  and  _298
REMARK  119  A    between atoms: _300  and  _302
REMARK  120  A    between atoms: _302  and  _303
REMARK  121  A    between atoms: _306  and  _308
REMARK  122  A    between atoms: _308  and  _309
REMARK  123  A    between atoms: _308  and  _311
REMARK  124  A    between atoms: _311  and  _312
REMARK  125  A    between atoms: _315  and  _317
REMARK  126  A    between atoms: _317  and  _318
REMARK  127  A    between atoms: _317  and  _320
REMARK  128  A    between atoms: _323  and  _325
REMARK  129  A    between atoms: _325  and  _326
REMARK  130  A    between atoms: _325  and  _328
REMARK  131  A    between atoms: _328  and  _329
REMARK  132  A    between atoms: _332  and  _334
REMARK  133  A    between atoms: _334  and  _335
REMARK  134  A    between atoms: _338  and  _340
REMARK  135  A    between atoms: _340  and  _341
REMARK  136  A    between atoms: _340  and  _343
REMARK  137  A    between atoms: _343  and  _344
REMARK  138  A    between atoms: _344  and  _345
REMARK  139  A    between atoms: _345  and  _346
REMARK  140  A    between atoms: _355  and  _357
REMARK  141  A    between atoms: _357  and  _358
REMARK  142  A    between atoms: _357  and  _360
REMARK  143  A    between atoms: _360  and  _361
REMARK  144  A    between atoms: _361  and  _362
REMARK  145  A    between atoms: _365  and  _367
REMARK  146  A    between atoms: _367  and  _368
REMARK  147  A    between atoms: _367  and  _370
REMARK  148  A    between atoms: _370  and  _371
REMARK  149  A    between atoms: _371  and  _372
REMARK  150  A    between atoms: _375  and  _377
REMARK  151  A    between atoms: _377  and  _378
REMARK  152  A    between atoms: _377  and  _380
REMARK  153  A    between atoms: _380  and  _381
REMARK  154  A    between atoms: _384  and  _386
REMARK  155  A    between atoms: _386  and  _387
REMARK  156  A    between atoms: _386  and  _389
REMARK  157  A    between atoms: _389  and  _390
REMARK  158  A    between atoms: _390  and  _391
REMARK  159  A    between atoms: _391  and  _392
REMARK  160  A    between atoms: _401  and  _403
REMARK  161  A    between atoms: _403  and  _404
REMARK  162  A    between atoms: _403  and  _406
REMARK  163  A    between atoms: _406  and  _407
REMARK  164  A    between atoms: _410  and  _412
REMARK  165  A    between atoms: _412  and  _413
REMARK  166  A    between atoms: _412  and  _415
REMARK  167  A    between atoms: _415  and  _416
REMARK  168  A    between atoms: _419  and  _421
REMARK  169  A    between atoms: _421  and  _422
REMARK  170  A    between atoms: _426  and  _427
REMARK  171  A    between atoms: _432  and  _434
REMARK  172  A    between atoms: _434  and  _435
REMARK  173  A    between atoms: _434  and  _437
REMARK  174  A    between atoms: _437  and  _438
REMARK  175  A    between atoms: _443  and  _445
REMARK  176  A    between atoms: _445  and  _446
REMARK  177  A    between atoms: _445  and  _448
REMARK  178  A    between atoms: _448  and  _449
REMARK  179  A    between atoms: _456  and  _457
REMARK  180  A    between atoms: _462  and  _464
REMARK  181  A    between atoms: _464  and  _465
REMARK  182  A    between atoms: _464  and  _467
REMARK  183  A    between atoms: _467  and  _468
REMARK  184  A    between atoms: _471  and  _473
REMARK  185  A    between atoms: _473  and  _474
REMARK  186  A    between atoms: _473  and  _476
REMARK  187  A    between atoms: _476  and  _477
REMARK  188  A    between atoms: _480  and  _482
REMARK  189  A    between atoms: _482  and  _483
REMARK  190  A    between atoms: _482  and  _485
REMARK  191  A    between atoms: _485  and  _486
REMARK  192  A    between atoms: _486  and  _487
REMARK  193  A    between atoms: _489  and  _491
REMARK  194  A    between atoms: _491  and  _492
REMARK  195  A    between atoms: _491  and  _494
REMARK  196  A    between atoms: _494  and  _495
REMARK  197  A    between atoms: _495  and  _496
REMARK  198  A    between atoms: _501  and  _503
REMARK  199  A    between atoms: _503  and  _504
REMARK  200  A    between atoms: _503  and  _506
REMARK  201  A    between atoms: _506  and  _507
REMARK  202  A    between atoms: _507  and  _508
REMARK  203  A    between atoms: _511  and  _513
REMARK  204  A    between atoms: _513  and  _514
REMARK  205  A    between atoms: _513  and  _516
REMARK  206  A    between atoms: _516  and  _517
REMARK  207  A    between atoms: _520  and  _522
REMARK  208  A    between atoms: _522  and  _523
REMARK  209  A    between atoms: _522  and  _525
REMARK  210  A    between atoms: _525  and  _526
REMARK  211  A    between atoms: _529  and  _531
REMARK  212  A    between atoms: _531  and  _532
REMARK  213  A    between atoms: _531  and  _534
REMARK  214  A    between atoms: _534  and  _535
REMARK  215  A    between atoms: _543  and  _544
REMARK  216  A    between atoms: _543  and  _546
REMARK  217  A    between atoms: _546  and  _547
REMARK  218  A    between atoms: _547  and  _548
REMARK  219  A    between atoms: _551  and  _553
REMARK  220  A    between atoms: _553  and  _554
REMARK  221  A    between atoms: _553  and  _556
REMARK  222  A    between atoms: _556  and  _557
REMARK  223  A    between atoms: _562  and  _564
REMARK  224  A    between atoms: _564  and  _565
REMARK  225  A    between atoms: _564  and  _567
REMARK  226  A    between atoms: _567  and  _568
REMARK  227  A    between atoms: _568  and  _569
REMARK  228  A    between atoms: _569  and  _570
REMARK  229  A    between atoms: _579  and  _581
REMARK  230  A    between atoms: _581  and  _582
REMARK  231  A    between atoms: _581  and  _584
REMARK  232  A    between atoms: _584  and  _585
REMARK  233  A    between atoms: _590  and  _591
REMARK  234  A    between atoms: _590  and  _593
REMARK  235  A    between atoms: _593  and  _594
REMARK  236  A    between atoms: _597  and  _599
REMARK  237  A    between atoms: _599  and  _600
REMARK  238  A    between atoms: _599  and  _602
REMARK  239  A    between atoms: _602  and  _603
REMARK  240  A    between atoms: _603  and  _604
REMARK  241  A    between atoms: _604  and  _605
REMARK  242  A    between atoms: _614  and  _616
REMARK  243  A    between atoms: _616  and  _617
REMARK                            x       y       z     vdW  Elec       q    Type
REMARK                         _______ _______ _______ _____ _____    ______ ____
ROOT
ATOM      1  O   HOH     1      83.188   1.107 134.965  0.00  0.00    +0.000 OA
ENDROOT
TORSDOF 0
REMARK  Name = ../refined-set-2016/3upk/3upk_pocket.pdb
REMARK  243 active torsions:
REMARK  status: ('A' for Active; 'I' for Inactive)
REMARK    1  A    between atoms: _1  and  _3
REMARK    2  A    between atoms: _3  and  _4
REMARK    3  A    between atoms: _3  and  _6
REMARK    4  A    between atoms: _6  and  _7
REMARK    5  A    between atoms: _7  and  _8
REMARK    6  A    between atoms: _8  and  _9
REMARK    7  A    between atoms: _9  and  _10
REMARK    8  A    between atoms: _16  and  _17
REMARK    9  A    between atoms: _16  and  _19
REMARK   10  A    between atoms: _19  and  _20
REMARK   11  A    between atoms: _25  and  _27
REMARK   12  A    between atoms: _27  and  _28
REMARK   13  A    between atoms: _31  and  _33
REMARK   14  A    between atoms: _33  and  _34
REMARK   15  A    between atoms: _33  and  _36
REMARK   16  A    between atoms: _36  and  _37
REMARK   17  A    between atoms: _41  and  _42
REMARK   18  A    between atoms: _47  and  _49
REMARK   19  A    between atoms: _49  and  _50
REMARK   20  A    between atoms: _49  and  _52
REMARK   21  A    between atoms: _52  and  _53
REMARK   22  A    between atoms: _59  and  _61
REMARK   23  A    between atoms: _61  and  _62
REMARK   24  A    between atoms: _61  and  _64
REMARK   25  A    between atoms: _64  and  _65
REMARK   26  A    between atoms: _68  and  _70
REMARK   27  A    between atoms: _70  and  _71
REMARK   28  A    between atoms: _70  and  _73
REMARK   29  A    between atoms: _73  and  _74
REMARK   30  A    between atoms: _74  and  _75
REMARK   31  A    between atoms: _77  and  _79
REMARK   32  A    between atoms: _79  and  _80
REMARK   33  A    between atoms: _79  and  _82
REMARK   34  A    between atoms: _82  and  _83
REMARK   35  A    between atoms: _83  and  _84
REMARK   36  A    between atoms: _84  and  _85
REMARK   37  A    between atoms: _94  and  _96
REMARK   38  A    between atoms: _96  and  _97
REMARK   39  A    between atoms: _100  and  _102
REMARK   40  A    between atoms: _102  and  _103
REMARK   41  A    between atoms: _102  and  _105
REMARK   42  A    between atoms: _105  and  _106
REMARK   43  A    between atoms: _108  and  _110
REMARK   44  A    between atoms: _110  and  _111
REMARK   45  A    between atoms: _110  and  _113
REMARK   46  A    between atoms: _113  and  _114
REMARK   47  A    between atoms: _117  and  _119
REMARK   48  A    between atoms: _119  and  _120
REMARK   49  A    between atoms: _119  and  _122
REMARK   50  A    between atoms: _122  and  _123
REMARK   51  A    between atoms: _133  and  _135
REMARK   52  A    between atoms: _135  and  _136
REMARK   53  A    between atoms: _135  and  _138
REMARK   54  A    between atoms: _138  and  _139
REMARK   55  A    between atoms: _142  and  _144
REMARK   56  A    between atoms: _144  and  _145
REMARK   57  A    between atoms: _147  and  _149
REMARK   58  A    between atoms: _149  and  _150
REMARK   59  A    between atoms: _153  and  _155
REMARK   60  A    between atoms: _155  and  _156
REMARK   61  A    between atoms: _155  and  _158
REMARK   62  A    between atoms: _158  and  _159
REMARK   63  A    between atoms: _159  and  _160
REMARK   64  A    between atoms: _160  and  _161
REMARK   65  A    between atoms: _171  and  _172
REMARK   66  A    between atoms: _177  and  _179
REMARK   67  A    between atoms: _179  and  _180
REMARK   68  A    between atoms: _179  and  _182
REMARK   69  A    between atoms: _185  and  _187
REMARK   70  A    between atoms: _187  and  _188
REMARK   71  A    between atoms: _187  and  _190
REMARK   72  A    between atoms: _190  and  _191
REMARK   73  A    between atoms: _194  and  _196
REMARK   74  A    between atoms: _196  and  _197
REMARK   75  A    between atoms: _196  and  _199
REMARK   76  A    between atoms: _199  and  _200
REMARK   77  A    between atoms: _203  and  _205
REMARK   78  A    between atoms: _205  and  _206
REMARK   79  A    between atoms: _205  and  _208
REMARK   80  A    between atoms: _208  and  _209
REMARK   81  A    between atoms: _214  and  _216
REMARK   82  A    between atoms: _216  and  _217
REMARK   83  A    between atoms: _216  and  _219
REMARK   84  A    between atoms: _219  and  _220
REMARK   85  A    between atoms: _223  and  _225
REMARK   86  A    between atoms: _225  and  _226
REMARK   87  A    between atoms: _225  and  _228
REMARK   88  A    between atoms: _228  and  _229
REMARK   89  A    between atoms: _235  and  _237
REMARK   90  A    between atoms: _237  and  _238
REMARK   91  A    between atoms: _240  and  _242
REMARK   92  A    between atoms: _242  and  _243
REMARK   93  A    between atoms: _242  and  _245
REMARK   94  A    between atoms: _245  and  _246
REMARK   95  A    between atoms: _246  and  _247
REMARK   96  A    between atoms: _249  and  _251
REMARK   97  A    between atoms: _251  and  _252
REMARK   98  A    between atoms: _251  and  _254
REMARK   99  A    between atoms: _254  and  _255
REMARK  100  A    between atoms: _258  and  _260
REMARK  101  A    between atoms: _260  and  _261
REMARK  102  A    between atoms: _260  and  _263
REMARK  103  A    between atoms: _263  and  _264
REMARK  104  A    between atoms: _264  and  _265
REMARK  105  A    between atoms: _265  and  _266
REMARK  106  A    between atoms: _266  and  _267
REMARK  107  A    between atoms: _271  and  _273
REMARK  108  A    between atoms: _273  and  _274
REMARK  109  A    between atoms: _273  and  _276
REMARK  110  A    between atoms: _279  and  _281
REMARK  111  A    between atoms: _281  and  _282
REMARK  112  A    between atoms: _281  and  _284
REMARK  113  A    between atoms: _284  and  _285
REMARK  114  A    between atoms: _287  and  _289
REMARK  115  A    between atoms: _289  and  _290
REMARK  116  A    between atoms: _289  and  _292
REMARK  117  A    between atoms: _295  and  _297
REMARK  118  A    between atoms: _297  and  _298
REMARK  119  A    between atoms: _300  and  _302
REMARK  120  A    between atoms: _302  and  _303
REMARK  121  A    between atoms: _306  and  _308
REMARK  122  A    between atoms: _308  and  _309
REMARK  123  A    between atoms: _308  and  _311
REMARK  124  A    between atoms: _311  and  _312
REMARK  125  A    between atoms: _315  and  _317
REMARK  126  A    between atoms: _317  and  _318
REMARK  127  A    between atoms: _317  and  _320
REMARK  128  A    between atoms: _323  and  _325
REMARK  129  A    between atoms: _325  and  _326
REMARK  130  A    between atoms: _325  and  _328
REMARK  131  A    between atoms: _328  and  _329
REMARK  132  A    between atoms: _332  and  _334
REMARK  133  A    between atoms: _334  and  _335
REMARK  134  A    between atoms: _338  and  _340
REMARK  135  A    between atoms: _340  and  _341
REMARK  136  A    between atoms: _340  and  _343
REMARK  137  A    between atoms: _343  and  _344
REMARK  138  A    between atoms: _344  and  _345
REMARK  139  A    between atoms: _345  and  _346
REMARK  140  A    between atoms: _355  and  _357
REMARK  141  A    between atoms: _357  and  _358
REMARK  142  A    between atoms: _357  and  _360
REMARK  143  A    between atoms: _360  and  _361
REMARK  144  A    between atoms: _361  and  _362
REMARK  145  A    between atoms: _365  and  _367
REMARK  146  A    between atoms: _367  and  _368
REMARK  147  A    between atoms: _367  and  _370
REMARK  148  A    between atoms: _370  and  _371
REMARK  149  A    between atoms: _371  and  _372
REMARK  150  A    between atoms: _375  and  _377
REMARK  151  A    between atoms: _377  and  _378
REMARK  152  A    between atoms: _377  and  _380
REMARK  153  A    between atoms: _380  and  _381
REMARK  154  A    between atoms: _384  and  _386
REMARK  155  A    between atoms: _386  and  _387
REMARK  156  A    between atoms: _386  and  _389
REMARK  157  A    between atoms: _389  and  _390
REMARK  158  A    between atoms: _390  and  _391
REMARK  159  A    between atoms: _391  and  _392
REMARK  160  A    between atoms: _401  and  _403
REMARK  161  A    between atoms: _403  and  _404
REMARK  162  A    between atoms: _403  and  _406
REMARK  163  A    between atoms: _406  and  _407
REMARK  164  A    between atoms: _410  and  _412
REMARK  165  A    between atoms: _412  and  _413
REMARK  166  A    between atoms: _412  and  _415
REMARK  167  A    between atoms: _415  and  _416
REMARK  168  A    between atoms: _419  and  _421
REMARK  169  A    between atoms: _421  and  _422
REMARK  170  A    between atoms: _426  and  _427
REMARK  171  A    between atoms: _432  and  _434
REMARK  172  A    between atoms: _434  and  _435
REMARK  173  A    between atoms: _434  and  _437
REMARK  174  A    between atoms: _437  and  _438
REMARK  175  A    between atoms: _443  and  _445
REMARK  176  A    between atoms: _445  and  _446
REMARK  177  A    between atoms: _445  and  _448
REMARK  178  A    between atoms: _448  and  _449
REMARK  179  A    between atoms: _456  and  _457
REMARK  180  A    between atoms: _462  and  _464
REMARK  181  A    between atoms: _464  and  _465
REMARK  182  A    between atoms: _464  and  _467
REMARK  183  A    between atoms: _467  and  _468
REMARK  184  A    between atoms: _471  and  _473
REMARK  185  A    between atoms: _473  and  _474
REMARK  186  A    between atoms: _473  and  _476
REMARK  187  A    between atoms: _476  and  _477
REMARK  188  A    between atoms: _480  and  _482
REMARK  189  A    between atoms: _482  and  _483
REMARK  190  A    between atoms: _482  and  _485
REMARK  191  A    between atoms: _485  and  _486
REMARK  192  A    between atoms: _486  and  _487
REMARK  193  A    between atoms: _489  and  _491
REMARK  194  A    between atoms: _491  and  _492
REMARK  195  A    between atoms: _491  and  _494
REMARK  196  A    between atoms: _494  and  _495
REMARK  197  A    between atoms: _495  and  _496
REMARK  198  A    between atoms: _501  and  _503
REMARK  199  A    between atoms: _503  and  _504
REMARK  200  A    between atoms: _503  and  _506
REMARK  201  A    between atoms: _506  and  _507
REMARK  202  A    between atoms: _507  and  _508
REMARK  203  A    between atoms: _511  and  _513
REMARK  204  A    between atoms: _513  and  _514
REMARK  205  A    between atoms: _513  and  _516
REMARK  206  A    between atoms: _516  and  _517
REMARK  207  A    between atoms: _520  and  _522
REMARK  208  A    between atoms: _522  and  _523
REMARK  209  A    between atoms: _522  and  _525
REMARK  210  A    between atoms: _525  and  _526
REMARK  211  A    between atoms: _529  and  _531
REMARK  212  A    between atoms: _531  and  _532
REMARK  213  A    between atoms: _531  and  _534
REMARK  214  A    between atoms: _534  and  _535
REMARK  215  A    between atoms: _543  and  _544
REMARK  216  A    between atoms: _543  and  _546
REMARK  217  A    between atoms: _546  and  _547
REMARK  218  A    between atoms: _547  and  _548
REMARK  219  A    between atoms: _551  and  _553
REMARK  220  A    between atoms: _553  and  _554
REMARK  221  A    between atoms: _553  and  _556
REMARK  222  A    between atoms: _556  and  _557
REMARK  223  A    between atoms: _562  and  _564
REMARK  224  A    between atoms: _564  and  _565
REMARK  225  A    between atoms: _564  and  _567
REMARK  226  A    between atoms: _567  and  _568
REMARK  227  A    between atoms: _568  and  _569
REMARK  228  A    between atoms: _569  and  _570
REMARK  229  A    between atoms: _579  and  _581
REMARK  230  A    between atoms: _581  and  _582
REMARK  231  A    between atoms: _581  and  _584
REMARK  232  A    between atoms: _584  and  _585
REMARK  233  A    between atoms: _590  and  _591
REMARK  234  A    between atoms: _590  and  _593
REMARK  235  A    between atoms: _593  and  _594
REMARK  236  A    between atoms: _597  and  _599
REMARK  237  A    between atoms: _599  and  _600
REMARK  238  A    between atoms: _599  and  _602
REMARK  239  A    between atoms: _602  and  _603
REMARK  240  A    between atoms: _603  and  _604
REMARK  241  A    between atoms: _604  and  _605
REMARK  242  A    between atoms: _614  and  _616
REMARK  243  A    between atoms: _616  and  _617
REMARK                            x       y       z     vdW  Elec       q    Type
REMARK                         _______ _______ _______ _____ _____    ______ ____
ROOT
ATOM      1  O   HOH     1      82.231  17.731 128.998  0.00  0.00    +0.000 OA
ENDROOT
TORSDOF 0
REMARK  Name = ../refined-set-2016/3upk/3upk_pocket.pdb
REMARK  243 active torsions:
REMARK  status: ('A' for Active; 'I' for Inactive)
REMARK    1  A    between atoms: _1  and  _3
REMARK    2  A    between atoms: _3  and  _4
REMARK    3  A    between atoms: _3  and  _6
REMARK    4  A    between atoms: _6  and  _7
REMARK    5  A    between atoms: _7  and  _8
REMARK    6  A    between atoms: _8  and  _9
REMARK    7  A    between atoms: _9  and  _10
REMARK    8  A    between atoms: _16  and  _17
REMARK    9  A    between atoms: _16  and  _19
REMARK   10  A    between atoms: _19  and  _20
REMARK   11  A    between atoms: _25  and  _27
REMARK   12  A    between atoms: _27  and  _28
REMARK   13  A    between atoms: _31  and  _33
REMARK   14  A    between atoms: _33  and  _34
REMARK   15  A    between atoms: _33  and  _36
REMARK   16  A    between atoms: _36  and  _37
REMARK   17  A    between atoms: _41  and  _42
REMARK   18  A    between atoms: _47  and  _49
REMARK   19  A    between atoms: _49  and  _50
REMARK   20  A    between atoms: _49  and  _52
REMARK   21  A    between atoms: _52  and  _53
REMARK   22  A    between atoms: _59  and  _61
REMARK   23  A    between atoms: _61  and  _62
REMARK   24  A    between atoms: _61  and  _64
REMARK   25  A    between atoms: _64  and  _65
REMARK   26  A    between atoms: _68  and  _70
REMARK   27  A    between atoms: _70  and  _71
REMARK   28  A    between atoms: _70  and  _73
REMARK   29  A    between atoms: _73  and  _74
REMARK   30  A    between atoms: _74  and  _75
REMARK   31  A    between atoms: _77  and  _79
REMARK   32  A    between atoms: _79  and  _80
REMARK   33  A    between atoms: _79  and  _82
REMARK   34  A    between atoms: _82  and  _83
REMARK   35  A    between atoms: _83  and  _84
REMARK   36  A    between atoms: _84  and  _85
REMARK   37  A    between atoms: _94  and  _96
REMARK   38  A    between atoms: _96  and  _97
REMARK   39  A    between atoms: _100  and  _102
REMARK   40  A    between atoms: _102  and  _103
REMARK   41  A    between atoms: _102  and  _105
REMARK   42  A    between atoms: _105  and  _106
REMARK   43  A    between atoms: _108  and  _110
REMARK   44  A    between atoms: _110  and  _111
REMARK   45  A    between atoms: _110  and  _113
REMARK   46  A    between atoms: _113  and  _114
REMARK   47  A    between atoms: _117  and  _119
REMARK   48  A    between atoms: _119  and  _120
REMARK   49  A    between atoms: _119  and  _122
REMARK   50  A    between atoms: _122  and  _123
REMARK   51  A    between atoms: _133  and  _135
REMARK   52  A    between atoms: _135  and  _136
REMARK   53  A    between atoms: _135  and  _138
REMARK   54  A    between atoms: _138  and  _139
REMARK   55  A    between atoms: _142  and  _144
REMARK   56  A    between atoms: _144  and  _145
REMARK   57  A    between atoms: _147  and  _149
REMARK   58  A    between atoms: _149  and  _150
REMARK   59  A    between atoms: _153  and  _155
REMARK   60  A    between atoms: _155  and  _156
REMARK   61  A    between atoms: _155  and  _158
REMARK   62  A    between atoms: _158  and  _159
REMARK   63  A    between atoms: _159  and  _160
REMARK   64  A    between atoms: _160  and  _161
REMARK   65  A    between atoms: _171  and  _172
REMARK   66  A    between atoms: _177  and  _179
REMARK   67  A    between atoms: _179  and  _180
REMARK   68  A    between atoms: _179  and  _182
REMARK   69  A    between atoms: _185  and  _187
REMARK   70  A    between atoms: _187  and  _188
REMARK   71  A    between atoms: _187  and  _190
REMARK   72  A    between atoms: _190  and  _191
REMARK   73  A    between atoms: _194  and  _196
REMARK   74  A    between atoms: _196  and  _197
REMARK   75  A    between atoms: _196  and  _199
REMARK   76  A    between atoms: _199  and  _200
REMARK   77  A    between atoms: _203  and  _205
REMARK   78  A    between atoms: _205  and  _206
REMARK   79  A    between atoms: _205  and  _208
REMARK   80  A    between atoms: _208  and  _209
REMARK   81  A    between atoms: _214  and  _216
REMARK   82  A    between atoms: _216  and  _217
REMARK   83  A    between atoms: _216  and  _219
REMARK   84  A    between atoms: _219  and  _220
REMARK   85  A    between atoms: _223  and  _225
REMARK   86  A    between atoms: _225  and  _226
REMARK   87  A    between atoms: _225  and  _228
REMARK   88  A    between atoms: _228  and  _229
REMARK   89  A    between atoms: _235  and  _237
REMARK   90  A    between atoms: _237  and  _238
REMARK   91  A    between atoms: _240  and  _242
REMARK   92  A    between atoms: _242  and  _243
REMARK   93  A    between atoms: _242  and  _245
REMARK   94  A    between atoms: _245  and  _246
REMARK   95  A    between atoms: _246  and  _247
REMARK   96  A    between atoms: _249  and  _251
REMARK   97  A    between atoms: _251  and  _252
REMARK   98  A    between atoms: _251  and  _254
REMARK   99  A    between atoms: _254  and  _255
REMARK  100  A    between atoms: _258  and  _260
REMARK  101  A    between atoms: _260  and  _261
REMARK  102  A    between atoms: _260  and  _263
REMARK  103  A    between atoms: _263  and  _264
REMARK  104  A    between atoms: _264  and  _265
REMARK  105  A    between atoms: _265  and  _266
REMARK  106  A    between atoms: _266  and  _267
REMARK  107  A    between atoms: _271  and  _273
REMARK  108  A    between atoms: _273  and  _274
REMARK  109  A    between atoms: _273  and  _276
REMARK  110  A    between atoms: _279  and  _281
REMARK  111  A    between atoms: _281  and  _282
REMARK  112  A    between atoms: _281  and  _284
REMARK  113  A    between atoms: _284  and  _285
REMARK  114  A    between atoms: _287  and  _289
REMARK  115  A    between atoms: _289  and  _290
REMARK  116  A    between atoms: _289  and  _292
REMARK  117  A    between atoms: _295  and  _297
REMARK  118  A    between atoms: _297  and  _298
REMARK  119  A    between atoms: _300  and  _302
REMARK  120  A    between atoms: _302  and  _303
REMARK  121  A    between atoms: _306  and  _308
REMARK  122  A    between atoms: _308  and  _309
REMARK  123  A    between atoms: _308  and  _311
REMARK  124  A    between atoms: _311  and  _312
REMARK  125  A    between atoms: _315  and  _317
REMARK  126  A    between atoms: _317  and  _318
REMARK  127  A    between atoms: _317  and  _320
REMARK  128  A    between atoms: _323  and  _325
REMARK  129  A    between atoms: _325  and  _326
REMARK  130  A    between atoms: _325  and  _328
REMARK  131  A    between atoms: _328  and  _329
REMARK  132  A    between atoms: _332  and  _334
REMARK  133  A    between atoms: _334  and  _335
REMARK  134  A    between atoms: _338  and  _340
REMARK  135  A    between atoms: _340  and  _341
REMARK  136  A    between atoms: _340  and  _343
REMARK  137  A    between atoms: _343  and  _344
REMARK  138  A    between atoms: _344  and  _345
REMARK  139  A    between atoms: _345  and  _346
REMARK  140  A    between atoms: _355  and  _357
REMARK  141  A    between atoms: _357  and  _358
REMARK  142  A    between atoms: _357  and  _360
REMARK  143  A    between atoms: _360  and  _361
REMARK  144  A    between atoms: _361  and  _362
REMARK  145  A    between atoms: _365  and  _367
REMARK  146  A    between atoms: _367  and  _368
REMARK  147  A    between atoms: _367  and  _370
REMARK  148  A    between atoms: _370  and  _371
REMARK  149  A    between atoms: _371  and  _372
REMARK  150  A    between atoms: _375  and  _377
REMARK  151  A    between atoms: _377  and  _378
REMARK  152  A    between atoms: _377  and  _380
REMARK  153  A    between atoms: _380  and  _381
REMARK  154  A    between atoms: _384  and  _386
REMARK  155  A    between atoms: _386  and  _387
REMARK  156  A    between atoms: _386  and  _389
REMARK  157  A    between atoms: _389  and  _390
REMARK  158  A    between atoms: _390  and  _391
REMARK  159  A    between atoms: _391  and  _392
REMARK  160  A    between atoms: _401  and  _403
REMARK  161  A    between atoms: _403  and  _404
REMARK  162  A    between atoms: _403  and  _406
REMARK  163  A    between atoms: _406  and  _407
REMARK  164  A    between atoms: _410  and  _412
REMARK  165  A    between atoms: _412  and  _413
REMARK  166  A    between atoms: _412  and  _415
REMARK  167  A    between atoms: _415  and  _416
REMARK  168  A    between atoms: _419  and  _421
REMARK  169  A    between atoms: _421  and  _422
REMARK  170  A    between atoms: _426  and  _427
REMARK  171  A    between atoms: _432  and  _434
REMARK  172  A    between atoms: _434  and  _435
REMARK  173  A    between atoms: _434  and  _437
REMARK  174  A    between atoms: _437  and  _438
REMARK  175  A    between atoms: _443  and  _445
REMARK  176  A    between atoms: _445  and  _446
REMARK  177  A    between atoms: _445  and  _448
REMARK  178  A    between atoms: _448  and  _449
REMARK  179  A    between atoms: _456  and  _457
REMARK  180  A    between atoms: _462  and  _464
REMARK  181  A    between atoms: _464  and  _465
REMARK  182  A    between atoms: _464  and  _467
REMARK  183  A    between atoms: _467  and  _468
REMARK  184  A    between atoms: _471  and  _473
REMARK  185  A    between atoms: _473  and  _474
REMARK  186  A    between atoms: _473  and  _476
REMARK  187  A    between atoms: _476  and  _477
REMARK  188  A    between atoms: _480  and  _482
REMARK  189  A    between atoms: _482  and  _483
REMARK  190  A    between atoms: _482  and  _485
REMARK  191  A    between atoms: _485  and  _486
REMARK  192  A    between atoms: _486  and  _487
REMARK  193  A    between atoms: _489  and  _491
REMARK  194  A    between atoms: _491  and  _492
REMARK  195  A    between atoms: _491  and  _494
REMARK  196  A    between atoms: _494  and  _495
REMARK  197  A    between atoms: _495  and  _496
REMARK  198  A    between atoms: _501  and  _503
REMARK  199  A    between atoms: _503  and  _504
REMARK  200  A    between atoms: _503  and  _506
REMARK  201  A    between atoms: _506  and  _507
REMARK  202  A    between atoms: _507  and  _508
REMARK  203  A    between atoms: _511  and  _513
REMARK  204  A    between atoms: _513  and  _514
REMARK  205  A    between atoms: _513  and  _516
REMARK  206  A    between atoms: _516  and  _517
REMARK  207  A    between atoms: _520  and  _522
REMARK  208  A    between atoms: _522  and  _523
REMARK  209  A    between atoms: _522  and  _525
REMARK  210  A    between atoms: _525  and  _526
REMARK  211  A    between atoms: _529  and  _531
REMARK  212  A    between atoms: _531  and  _532
REMARK  213  A    between atoms: _531  and  _534
REMARK  214  A    between atoms: _534  and  _535
REMARK  215  A    between atoms: _543  and  _544
REMARK  216  A    between atoms: _543  and  _546
REMARK  217  A    between atoms: _546  and  _547
REMARK  218  A    between atoms: _547  and  _548
REMARK  219  A    between atoms: _551  and  _553
REMARK  220  A    between atoms: _553  and  _554
REMARK  221  A    between atoms: _553  and  _556
REMARK  222  A    between atoms: _556  and  _557
REMARK  223  A    between atoms: _562  and  _564
REMARK  224  A    between atoms: _564  and  _565
REMARK  225  A    between atoms: _564  and  _567
REMARK  226  A    between atoms: _567  and  _568
REMARK  227  A    between atoms: _568  and  _569
REMARK  228  A    between atoms: _569  and  _570
REMARK  229  A    between atoms: _579  and  _581
REMARK  230  A    between atoms: _581  and  _582
REMARK  231  A    between atoms: _581  and  _584
REMARK  232  A    between atoms: _584  and  _585
REMARK  233  A    between atoms: _590  and  _591
REMARK  234  A    between atoms: _590  and  _593
REMARK  235  A    between atoms: _593  and  _594
REMARK  236  A    between atoms: _597  and  _599
REMARK  237  A    between atoms: _599  and  _600
REMARK  238  A    between atoms: _599  and  _602
REMARK  239  A    between atoms: _602  and  _603
REMARK  240  A    between atoms: _603  and  _604
REMARK  241  A    between atoms: _604  and  _605
REMARK  242  A    between atoms: _614  and  _616
REMARK  243  A    between atoms: _616  and  _617
REMARK                            x       y       z     vdW  Elec       q    Type
REMARK                         _______ _______ _______ _____ _____    ______ ____
ROOT
ATOM      1  O   HOH     1      80.645   0.975 135.038  0.00  0.00    +0.000 OA
ENDROOT
TORSDOF 0
REMARK  Name = ../refined-set-2016/3upk/3upk_pocket.pdb
REMARK  243 active torsions:
REMARK  status: ('A' for Active; 'I' for Inactive)
REMARK    1  A    between atoms: _1  and  _3
REMARK    2  A    between atoms: _3  and  _4
REMARK    3  A    between atoms: _3  and  _6
REMARK    4  A    between atoms: _6  and  _7
REMARK    5  A    between atoms: _7  and  _8
REMARK    6  A    between atoms: _8  and  _9
REMARK    7  A    between atoms: _9  and  _10
REMARK    8  A    between atoms: _16  and  _17
REMARK    9  A    between atoms: _16  and  _19
REMARK   10  A    between atoms: _19  and  _20
REMARK   11  A    between atoms: _25  and  _27
REMARK   12  A    between atoms: _27  and  _28
REMARK   13  A    between atoms: _31  and  _33
REMARK   14  A    between atoms: _33  and  _34
REMARK   15  A    between atoms: _33  and  _36
REMARK   16  A    between atoms: _36  and  _37
REMARK   17  A    between atoms: _41  and  _42
REMARK   18  A    between atoms: _47  and  _49
REMARK   19  A    between atoms: _49  and  _50
REMARK   20  A    between atoms: _49  and  _52
REMARK   21  A    between atoms: _52  and  _53
REMARK   22  A    between atoms: _59  and  _61
REMARK   23  A    between atoms: _61  and  _62
REMARK   24  A    between atoms: _61  and  _64
REMARK   25  A    between atoms: _64  and  _65
REMARK   26  A    between atoms: _68  and  _70
REMARK   27  A    between atoms: _70  and  _71
REMARK   28  A    between atoms: _70  and  _73
REMARK   29  A    between atoms: _73  and  _74
REMARK   30  A    between atoms: _74  and  _75
REMARK   31  A    between atoms: _77  and  _79
REMARK   32  A    between atoms: _79  and  _80
REMARK   33  A    between atoms: _79  and  _82
REMARK   34  A    between atoms: _82  and  _83
REMARK   35  A    between atoms: _83  and  _84
REMARK   36  A    between atoms: _84  and  _85
REMARK   37  A    between atoms: _94  and  _96
REMARK   38  A    between atoms: _96  and  _97
REMARK   39  A    between atoms: _100  and  _102
REMARK   40  A    between atoms: _102  and  _103
REMARK   41  A    between atoms: _102  and  _105
REMARK   42  A    between atoms: _105  and  _106
REMARK   43  A    between atoms: _108  and  _110
REMARK   44  A    between atoms: _110  and  _111
REMARK   45  A    between atoms: _110  and  _113
REMARK   46  A    between atoms: _113  and  _114
REMARK   47  A    between atoms: _117  and  _119
REMARK   48  A    between atoms: _119  and  _120
REMARK   49  A    between atoms: _119  and  _122
REMARK   50  A    between atoms: _122  and  _123
REMARK   51  A    between atoms: _133  and  _135
REMARK   52  A    between atoms: _135  and  _136
REMARK   53  A    between atoms: _135  and  _138
REMARK   54  A    between atoms: _138  and  _139
REMARK   55  A    between atoms: _142  and  _144
REMARK   56  A    between atoms: _144  and  _145
REMARK   57  A    between atoms: _147  and  _149
REMARK   58  A    between atoms: _149  and  _150
REMARK   59  A    between atoms: _153  and  _155
REMARK   60  A    between atoms: _155  and  _156
REMARK   61  A    between atoms: _155  and  _158
REMARK   62  A    between atoms: _158  and  _159
REMARK   63  A    between atoms: _159  and  _160
REMARK   64  A    between atoms: _160  and  _161
REMARK   65  A    between atoms: _171  and  _172
REMARK   66  A    between atoms: _177  and  _179
REMARK   67  A    between atoms: _179  and  _180
REMARK   68  A    between atoms: _179  and  _182
REMARK   69  A    between atoms: _185  and  _187
REMARK   70  A    between atoms: _187  and  _188
REMARK   71  A    between atoms: _187  and  _190
REMARK   72  A    between atoms: _190  and  _191
REMARK   73  A    between atoms: _194  and  _196
REMARK   74  A    between atoms: _196  and  _197
REMARK   75  A    between atoms: _196  and  _199
REMARK   76  A    between atoms: _199  and  _200
REMARK   77  A    between atoms: _203  and  _205
REMARK   78  A    between atoms: _205  and  _206
REMARK   79  A    between atoms: _205  and  _208
REMARK   80  A    between atoms: _208  and  _209
REMARK   81  A    between atoms: _214  and  _216
REMARK   82  A    between atoms: _216  and  _217
REMARK   83  A    between atoms: _216  and  _219
REMARK   84  A    between atoms: _219  and  _220
REMARK   85  A    between atoms: _223  and  _225
REMARK   86  A    between atoms: _225  and  _226
REMARK   87  A    between atoms: _225  and  _228
REMARK   88  A    between atoms: _228  and  _229
REMARK   89  A    between atoms: _235  and  _237
REMARK   90  A    between atoms: _237  and  _238
REMARK   91  A    between atoms: _240  and  _242
REMARK   92  A    between atoms: _242  and  _243
REMARK   93  A    between atoms: _242  and  _245
REMARK   94  A    between atoms: _245  and  _246
REMARK   95  A    between atoms: _246  and  _247
REMARK   96  A    between atoms: _249  and  _251
REMARK   97  A    between atoms: _251  and  _252
REMARK   98  A    between atoms: _251  and  _254
REMARK   99  A    between atoms: _254  and  _255
REMARK  100  A    between atoms: _258  and  _260
REMARK  101  A    between atoms: _260  and  _261
REMARK  102  A    between atoms: _260  and  _263
REMARK  103  A    between atoms: _263  and  _264
REMARK  104  A    between atoms: _264  and  _265
REMARK  105  A    between atoms: _265  and  _266
REMARK  106  A    between atoms: _266  and  _267
REMARK  107  A    between atoms: _271  and  _273
REMARK  108  A    between atoms: _273  and  _274
REMARK  109  A    between atoms: _273  and  _276
REMARK  110  A    between atoms: _279  and  _281
REMARK  111  A    between atoms: _281  and  _282
REMARK  112  A    between atoms: _281  and  _284
REMARK  113  A    between atoms: _284  and  _285
REMARK  114  A    between atoms: _287  and  _289
REMARK  115  A    between atoms: _289  and  _290
REMARK  116  A    between atoms: _289  and  _292
REMARK  117  A    between atoms: _295  and  _297
REMARK  118  A    between atoms: _297  and  _298
REMARK  119  A    between atoms: _300  and  _302
REMARK  120  A    between atoms: _302  and  _303
REMARK  121  A    between atoms: _306  and  _308
REMARK  122  A    between atoms: _308  and  _309
REMARK  123  A    between atoms: _308  and  _311
REMARK  124  A    between atoms: _311  and  _312
REMARK  125  A    between atoms: _315  and  _317
REMARK  126  A    between atoms: _317  and  _318
REMARK  127  A    between atoms: _317  and  _320
REMARK  128  A    between atoms: _323  and  _325
REMARK  129  A    between atoms: _325  and  _326
REMARK  130  A    between atoms: _325  and  _328
REMARK  131  A    between atoms: _328  and  _329
REMARK  132  A    between atoms: _332  and  _334
REMARK  133  A    between atoms: _334  and  _335
REMARK  134  A    between atoms: _338  and  _340
REMARK  135  A    between atoms: _340  and  _341
REMARK  136  A    between atoms: _340  and  _343
REMARK  137  A    between atoms: _343  and  _344
REMARK  138  A    between atoms: _344  and  _345
REMARK  139  A    between atoms: _345  and  _346
REMARK  140  A    between atoms: _355  and  _357
REMARK  141  A    between atoms: _357  and  _358
REMARK  142  A    between atoms: _357  and  _360
REMARK  143  A    between atoms: _360  and  _361
REMARK  144  A    between atoms: _361  and  _362
REMARK  145  A    between atoms: _365  and  _367
REMARK  146  A    between atoms: _367  and  _368
REMARK  147  A    between atoms: _367  and  _370
REMARK  148  A    between atoms: _370  and  _371
REMARK  149  A    between atoms: _371  and  _372
REMARK  150  A    between atoms: _375  and  _377
REMARK  151  A    between atoms: _377  and  _378
REMARK  152  A    between atoms: _377  and  _380
REMARK  153  A    between atoms: _380  and  _381
REMARK  154  A    between atoms: _384  and  _386
REMARK  155  A    between atoms: _386  and  _387
REMARK  156  A    between atoms: _386  and  _389
REMARK  157  A    between atoms: _389  and  _390
REMARK  158  A    between atoms: _390  and  _391
REMARK  159  A    between atoms: _391  and  _392
REMARK  160  A    between atoms: _401  and  _403
REMARK  161  A    between atoms: _403  and  _404
REMARK  162  A    between atoms: _403  and  _406
REMARK  163  A    between atoms: _406  and  _407
REMARK  164  A    between atoms: _410  and  _412
REMARK  165  A    between atoms: _412  and  _413
REMARK  166  A    between atoms: _412  and  _415
REMARK  167  A    between atoms: _415  and  _416
REMARK  168  A    between atoms: _419  and  _421
REMARK  169  A    between atoms: _421  and  _422
REMARK  170  A    between atoms: _426  and  _427
REMARK  171  A    between atoms: _432  and  _434
REMARK  172  A    between atoms: _434  and  _435
REMARK  173  A    between atoms: _434  and  _437
REMARK  174  A    between atoms: _437  and  _438
REMARK  175  A    between atoms: _443  and  _445
REMARK  176  A    between atoms: _445  and  _446
REMARK  177  A    between atoms: _445  and  _448
REMARK  178  A    between atoms: _448  and  _449
REMARK  179  A    between atoms: _456  and  _457
REMARK  180  A    between atoms: _462  and  _464
REMARK  181  A    between atoms: _464  and  _465
REMARK  182  A    between atoms: _464  and  _467
REMARK  183  A    between atoms: _467  and  _468
REMARK  184  A    between atoms: _471  and  _473
REMARK  185  A    between atoms: _473  and  _474
REMARK  186  A    between atoms: _473  and  _476
REMARK  187  A    between atoms: _476  and  _477
REMARK  188  A    between atoms: _480  and  _482
REMARK  189  A    between atoms: _482  and  _483
REMARK  190  A    between atoms: _482  and  _485
REMARK  191  A    between atoms: _485  and  _486
REMARK  192  A    between atoms: _486  and  _487
REMARK  193  A    between atoms: _489  and  _491
REMARK  194  A    between atoms: _491  and  _492
REMARK  195  A    between atoms: _491  and  _494
REMARK  196  A    between atoms: _494  and  _495
REMARK  197  A    between atoms: _495  and  _496
REMARK  198  A    between atoms: _501  and  _503
REMARK  199  A    between atoms: _503  and  _504
REMARK  200  A    between atoms: _503  and  _506
REMARK  201  A    between atoms: _506  and  _507
REMARK  202  A    between atoms: _507  and  _508
REMARK  203  A    between atoms: _511  and  _513
REMARK  204  A    between atoms: _513  and  _514
REMARK  205  A    between atoms: _513  and  _516
REMARK  206  A    between atoms: _516  and  _517
REMARK  207  A    between atoms: _520  and  _522
REMARK  208  A    between atoms: _522  and  _523
REMARK  209  A    between atoms: _522  and  _525
REMARK  210  A    between atoms: _525  and  _526
REMARK  211  A    between atoms: _529  and  _531
REMARK  212  A    between atoms: _531  and  _532
REMARK  213  A    between atoms: _531  and  _534
REMARK  214  A    between atoms: _534  and  _535
REMARK  215  A    between atoms: _543  and  _544
REMARK  216  A    between atoms: _543  and  _546
REMARK  217  A    between atoms: _546  and  _547
REMARK  218  A    between atoms: _547  and  _548
REMARK  219  A    between atoms: _551  and  _553
REMARK  220  A    between atoms: _553  and  _554
REMARK  221  A    between atoms: _553  and  _556
REMARK  222  A    between atoms: _556  and  _557
REMARK  223  A    between atoms: _562  and  _564
REMARK  224  A    between atoms: _564  and  _565
REMARK  225  A    between atoms: _564  and  _567
REMARK  226  A    between atoms: _567  and  _568
REMARK  227  A    between atoms: _568  and  _569
REMARK  228  A    between atoms: _569  and  _570
REMARK  229  A    between atoms: _579  and  _581
REMARK  230  A    between atoms: _581  and  _582
REMARK  231  A    between atoms: _581  and  _584
REMARK  232  A    between atoms: _584  and  _585
REMARK  233  A    between atoms: _590  and  _591
REMARK  234  A    between atoms: _590  and  _593
REMARK  235  A    between atoms: _593  and  _594
REMARK  236  A    between atoms: _597  and  _599
REMARK  237  A    between atoms: _599  and  _600
REMARK  238  A    between atoms: _599  and  _602
REMARK  239  A    between atoms: _602  and  _603
REMARK  240  A    between atoms: _603  and  _604
REMARK  241  A    between atoms: _604  and  _605
REMARK  242  A    between atoms: _614  and  _616
REMARK  243  A    between atoms: _616  and  _617
REMARK                            x       y       z     vdW  Elec       q    Type
REMARK                         _______ _______ _______ _____ _____    ______ ____
ROOT
ATOM      1  O   HOH     1      81.164   3.400 133.996  0.00  0.00    +0.000 OA
ENDROOT
TORSDOF 0
REMARK  Name = ../refined-set-2016/3upk/3upk_pocket.pdb
REMARK  243 active torsions:
REMARK  status: ('A' for Active; 'I' for Inactive)
REMARK    1  A    between atoms: _1  and  _3
REMARK    2  A    between atoms: _3  and  _4
REMARK    3  A    between atoms: _3  and  _6
REMARK    4  A    between atoms: _6  and  _7
REMARK    5  A    between atoms: _7  and  _8
REMARK    6  A    between atoms: _8  and  _9
REMARK    7  A    between atoms: _9  and  _10
REMARK    8  A    between atoms: _16  and  _17
REMARK    9  A    between atoms: _16  and  _19
REMARK   10  A    between atoms: _19  and  _20
REMARK   11  A    between atoms: _25  and  _27
REMARK   12  A    between atoms: _27  and  _28
REMARK   13  A    between atoms: _31  and  _33
REMARK   14  A    between atoms: _33  and  _34
REMARK   15  A    between atoms: _33  and  _36
REMARK   16  A    between atoms: _36  and  _37
REMARK   17  A    between atoms: _41  and  _42
REMARK   18  A    between atoms: _47  and  _49
REMARK   19  A    between atoms: _49  and  _50
REMARK   20  A    between atoms: _49  and  _52
REMARK   21  A    between atoms: _52  and  _53
REMARK   22  A    between atoms: _59  and  _61
REMARK   23  A    between atoms: _61  and  _62
REMARK   24  A    between atoms: _61  and  _64
REMARK   25  A    between atoms: _64  and  _65
REMARK   26  A    between atoms: _68  and  _70
REMARK   27  A    between atoms: _70  and  _71
REMARK   28  A    between atoms: _70  and  _73
REMARK   29  A    between atoms: _73  and  _74
REMARK   30  A    between atoms: _74  and  _75
REMARK   31  A    between atoms: _77  and  _79
REMARK   32  A    between atoms: _79  and  _80
REMARK   33  A    between atoms: _79  and  _82
REMARK   34  A    between atoms: _82  and  _83
REMARK   35  A    between atoms: _83  and  _84
REMARK   36  A    between atoms: _84  and  _85
REMARK   37  A    between atoms: _94  and  _96
REMARK   38  A    between atoms: _96  and  _97
REMARK   39  A    between atoms: _100  and  _102
REMARK   40  A    between atoms: _102  and  _103
REMARK   41  A    between atoms: _102  and  _105
REMARK   42  A    between atoms: _105  and  _106
REMARK   43  A    between atoms: _108  and  _110
REMARK   44  A    between atoms: _110  and  _111
REMARK   45  A    between atoms: _110  and  _113
REMARK   46  A    between atoms: _113  and  _114
REMARK   47  A    between atoms: _117  and  _119
REMARK   48  A    between atoms: _119  and  _120
REMARK   49  A    between atoms: _119  and  _122
REMARK   50  A    between atoms: _122  and  _123
REMARK   51  A    between atoms: _133  and  _135
REMARK   52  A    between atoms: _135  and  _136
REMARK   53  A    between atoms: _135  and  _138
REMARK   54  A    between atoms: _138  and  _139
REMARK   55  A    between atoms: _142  and  _144
REMARK   56  A    between atoms: _144  and  _145
REMARK   57  A    between atoms: _147  and  _149
REMARK   58  A    between atoms: _149  and  _150
REMARK   59  A    between atoms: _153  and  _155
REMARK   60  A    between atoms: _155  and  _156
REMARK   61  A    between atoms: _155  and  _158
REMARK   62  A    between atoms: _158  and  _159
REMARK   63  A    between atoms: _159  and  _160
REMARK   64  A    between atoms: _160  and  _161
REMARK   65  A    between atoms: _171  and  _172
REMARK   66  A    between atoms: _177  and  _179
REMARK   67  A    between atoms: _179  and  _180
REMARK   68  A    between atoms: _179  and  _182
REMARK   69  A    between atoms: _185  and  _187
REMARK   70  A    between atoms: _187  and  _188
REMARK   71  A    between atoms: _187  and  _190
REMARK   72  A    between atoms: _190  and  _191
REMARK   73  A    between atoms: _194  and  _196
REMARK   74  A    between atoms: _196  and  _197
REMARK   75  A    between atoms: _196  and  _199
REMARK   76  A    between atoms: _199  and  _200
REMARK   77  A    between atoms: _203  and  _205
REMARK   78  A    between atoms: _205  and  _206
REMARK   79  A    between atoms: _205  and  _208
REMARK   80  A    between atoms: _208  and  _209
REMARK   81  A    between atoms: _214  and  _216
REMARK   82  A    between atoms: _216  and  _217
REMARK   83  A    between atoms: _216  and  _219
REMARK   84  A    between atoms: _219  and  _220
REMARK   85  A    between atoms: _223  and  _225
REMARK   86  A    between atoms: _225  and  _226
REMARK   87  A    between atoms: _225  and  _228
REMARK   88  A    between atoms: _228  and  _229
REMARK   89  A    between atoms: _235  and  _237
REMARK   90  A    between atoms: _237  and  _238
REMARK   91  A    between atoms: _240  and  _242
REMARK   92  A    between atoms: _242  and  _243
REMARK   93  A    between atoms: _242  and  _245
REMARK   94  A    between atoms: _245  and  _246
REMARK   95  A    between atoms: _246  and  _247
REMARK   96  A    between atoms: _249  and  _251
REMARK   97  A    between atoms: _251  and  _252
REMARK   98  A    between atoms: _251  and  _254
REMARK   99  A    between atoms: _254  and  _255
REMARK  100  A    between atoms: _258  and  _260
REMARK  101  A    between atoms: _260  and  _261
REMARK  102  A    between atoms: _260  and  _263
REMARK  103  A    between atoms: _263  and  _264
REMARK  104  A    between atoms: _264  and  _265
REMARK  105  A    between atoms: _265  and  _266
REMARK  106  A    between atoms: _266  and  _267
REMARK  107  A    between atoms: _271  and  _273
REMARK  108  A    between atoms: _273  and  _274
REMARK  109  A    between atoms: _273  and  _276
REMARK  110  A    between atoms: _279  and  _281
REMARK  111  A    between atoms: _281  and  _282
REMARK  112  A    between atoms: _281  and  _284
REMARK  113  A    between atoms: _284  and  _285
REMARK  114  A    between atoms: _287  and  _289
REMARK  115  A    between atoms: _289  and  _290
REMARK  116  A    between atoms: _289  and  _292
REMARK  117  A    between atoms: _295  and  _297
REMARK  118  A    between atoms: _297  and  _298
REMARK  119  A    between atoms: _300  and  _302
REMARK  120  A    between atoms: _302  and  _303
REMARK  121  A    between atoms: _306  and  _308
REMARK  122  A    between atoms: _308  and  _309
REMARK  123  A    between atoms: _308  and  _311
REMARK  124  A    between atoms: _311  and  _312
REMARK  125  A    between atoms: _315  and  _317
REMARK  126  A    between atoms: _317  and  _318
REMARK  127  A    between atoms: _317  and  _320
REMARK  128  A    between atoms: _323  and  _325
REMARK  129  A    between atoms: _325  and  _326
REMARK  130  A    between atoms: _325  and  _328
REMARK  131  A    between atoms: _328  and  _329
REMARK  132  A    between atoms: _332  and  _334
REMARK  133  A    between atoms: _334  and  _335
REMARK  134  A    between atoms: _338  and  _340
REMARK  135  A    between atoms: _340  and  _341
REMARK  136  A    between atoms: _340  and  _343
REMARK  137  A    between atoms: _343  and  _344
REMARK  138  A    between atoms: _344  and  _345
REMARK  139  A    between atoms: _345  and  _346
REMARK  140  A    between atoms: _355  and  _357
REMARK  141  A    between atoms: _357  and  _358
REMARK  142  A    between atoms: _357  and  _360
REMARK  143  A    between atoms: _360  and  _361
REMARK  144  A    between atoms: _361  and  _362
REMARK  145  A    between atoms: _365  and  _367
REMARK  146  A    between atoms: _367  and  _368
REMARK  147  A    between atoms: _367  and  _370
REMARK  148  A    between atoms: _370  and  _371
REMARK  149  A    between atoms: _371  and  _372
REMARK  150  A    between atoms: _375  and  _377
REMARK  151  A    between atoms: _377  and  _378
REMARK  152  A    between atoms: _377  and  _380
REMARK  153  A    between atoms: _380  and  _381
REMARK  154  A    between atoms: _384  and  _386
REMARK  155  A    between atoms: _386  and  _387
REMARK  156  A    between atoms: _386  and  _389
REMARK  157  A    between atoms: _389  and  _390
REMARK  158  A    between atoms: _390  and  _391
REMARK  159  A    between atoms: _391  and  _392
REMARK  160  A    between atoms: _401  and  _403
REMARK  161  A    between atoms: _403  and  _404
REMARK  162  A    between atoms: _403  and  _406
REMARK  163  A    between atoms: _406  and  _407
REMARK  164  A    between atoms: _410  and  _412
REMARK  165  A    between atoms: _412  and  _413
REMARK  166  A    between atoms: _412  and  _415
REMARK  167  A    between atoms: _415  and  _416
REMARK  168  A    between atoms: _419  and  _421
REMARK  169  A    between atoms: _421  and  _422
REMARK  170  A    between atoms: _426  and  _427
REMARK  171  A    between atoms: _432  and  _434
REMARK  172  A    between atoms: _434  and  _435
REMARK  173  A    between atoms: _434  and  _437
REMARK  174  A    between atoms: _437  and  _438
REMARK  175  A    between atoms: _443  and  _445
REMARK  176  A    between atoms: _445  and  _446
REMARK  177  A    between atoms: _445  and  _448
REMARK  178  A    between atoms: _448  and  _449
REMARK  179  A    between atoms: _456  and  _457
REMARK  180  A    between atoms: _462  and  _464
REMARK  181  A    between atoms: _464  and  _465
REMARK  182  A    between atoms: _464  and  _467
REMARK  183  A    between atoms: _467  and  _468
REMARK  184  A    between atoms: _471  and  _473
REMARK  185  A    between atoms: _473  and  _474
REMARK  186  A    between atoms: _473  and  _476
REMARK  187  A    between atoms: _476  and  _477
REMARK  188  A    between atoms: _480  and  _482
REMARK  189  A    between atoms: _482  and  _483
REMARK  190  A    between atoms: _482  and  _485
REMARK  191  A    between atoms: _485  and  _486
REMARK  192  A    between atoms: _486  and  _487
REMARK  193  A    between atoms: _489  and  _491
REMARK  194  A    between atoms: _491  and  _492
REMARK  195  A    between atoms: _491  and  _494
REMARK  196  A    between atoms: _494  and  _495
REMARK  197  A    between atoms: _495  and  _496
REMARK  198  A    between atoms: _501  and  _503
REMARK  199  A    between atoms: _503  and  _504
REMARK  200  A    between atoms: _503  and  _506
REMARK  201  A    between atoms: _506  and  _507
REMARK  202  A    between atoms: _507  and  _508
REMARK  203  A    between atoms: _511  and  _513
REMARK  204  A    between atoms: _513  and  _514
REMARK  205  A    between atoms: _513  and  _516
REMARK  206  A    between atoms: _516  and  _517
REMARK  207  A    between atoms: _520  and  _522
REMARK  208  A    between atoms: _522  and  _523
REMARK  209  A    between atoms: _522  and  _525
REMARK  210  A    between atoms: _525  and  _526
REMARK  211  A    between atoms: _529  and  _531
REMARK  212  A    between atoms: _531  and  _532
REMARK  213  A    between atoms: _531  and  _534
REMARK  214  A    between atoms: _534  and  _535
REMARK  215  A    between atoms: _543  and  _544
REMARK  216  A    between atoms: _543  and  _546
REMARK  217  A    between atoms: _546  and  _547
REMARK  218  A    between atoms: _547  and  _548
REMARK  219  A    between atoms: _551  and  _553
REMARK  220  A    between atoms: _553  and  _554
REMARK  221  A    between atoms: _553  and  _556
REMARK  222  A    between atoms: _556  and  _557
REMARK  223  A    between atoms: _562  and  _564
REMARK  224  A    between atoms: _564  and  _565
REMARK  225  A    between atoms: _564  and  _567
REMARK  226  A    between atoms: _567  and  _568
REMARK  227  A    between atoms: _568  and  _569
REMARK  228  A    between atoms: _569  and  _570
REMARK  229  A    between atoms: _579  and  _581
REMARK  230  A    between atoms: _581  and  _582
REMARK  231  A    between atoms: _581  and  _584
REMARK  232  A    between atoms: _584  and  _585
REMARK  233  A    between atoms: _590  and  _591
REMARK  234  A    between atoms: _590  and  _593
REMARK  235  A    between atoms: _593  and  _594
REMARK  236  A    between atoms: _597  and  _599
REMARK  237  A    between atoms: _599  and  _600
REMARK  238  A    between atoms: _599  and  _602
REMARK  239  A    between atoms: _602  and  _603
REMARK  240  A    between atoms: _603  and  _604
REMARK  241  A    between atoms: _604  and  _605
REMARK  242  A    between atoms: _614  and  _616
REMARK  243  A    between atoms: _616  and  _617
REMARK                            x       y       z     vdW  Elec       q    Type
REMARK                         _______ _______ _______ _____ _____    ______ ____
ROOT
ATOM      1  O   HOH     1      80.703   1.066 118.632  0.00  0.00    +0.000 OA
ENDROOT
TORSDOF 0
REMARK  Name = ../refined-set-2016/3upk/3upk_pocket.pdb
REMARK  243 active torsions:
REMARK  status: ('A' for Active; 'I' for Inactive)
REMARK    1  A    between atoms: _1  and  _3
REMARK    2  A    between atoms: _3  and  _4
REMARK    3  A    between atoms: _3  and  _6
REMARK    4  A    between atoms: _6  and  _7
REMARK    5  A    between atoms: _7  and  _8
REMARK    6  A    between atoms: _8  and  _9
REMARK    7  A    between atoms: _9  and  _10
REMARK    8  A    between atoms: _16  and  _17
REMARK    9  A    between atoms: _16  and  _19
REMARK   10  A    between atoms: _19  and  _20
REMARK   11  A    between atoms: _25  and  _27
REMARK   12  A    between atoms: _27  and  _28
REMARK   13  A    between atoms: _31  and  _33
REMARK   14  A    between atoms: _33  and  _34
REMARK   15  A    between atoms: _33  and  _36
REMARK   16  A    between atoms: _36  and  _37
REMARK   17  A    between atoms: _41  and  _42
REMARK   18  A    between atoms: _47  and  _49
REMARK   19  A    between atoms: _49  and  _50
REMARK   20  A    between atoms: _49  and  _52
REMARK   21  A    between atoms: _52  and  _53
REMARK   22  A    between atoms: _59  and  _61
REMARK   23  A    between atoms: _61  and  _62
REMARK   24  A    between atoms: _61  and  _64
REMARK   25  A    between atoms: _64  and  _65
REMARK   26  A    between atoms: _68  and  _70
REMARK   27  A    between atoms: _70  and  _71
REMARK   28  A    between atoms: _70  and  _73
REMARK   29  A    between atoms: _73  and  _74
REMARK   30  A    between atoms: _74  and  _75
REMARK   31  A    between atoms: _77  and  _79
REMARK   32  A    between atoms: _79  and  _80
REMARK   33  A    between atoms: _79  and  _82
REMARK   34  A    between atoms: _82  and  _83
REMARK   35  A    between atoms: _83  and  _84
REMARK   36  A    between atoms: _84  and  _85
REMARK   37  A    between atoms: _94  and  _96
REMARK   38  A    between atoms: _96  and  _97
REMARK   39  A    between atoms: _100  and  _102
REMARK   40  A    between atoms: _102  and  _103
REMARK   41  A    between atoms: _102  and  _105
REMARK   42  A    between atoms: _105  and  _106
REMARK   43  A    between atoms: _108  and  _110
REMARK   44  A    between atoms: _110  and  _111
REMARK   45  A    between atoms: _110  and  _113
REMARK   46  A    between atoms: _113  and  _114
REMARK   47  A    between atoms: _117  and  _119
REMARK   48  A    between atoms: _119  and  _120
REMARK   49  A    between atoms: _119  and  _122
REMARK   50  A    between atoms: _122  and  _123
REMARK   51  A    between atoms: _133  and  _135
REMARK   52  A    between atoms: _135  and  _136
REMARK   53  A    between atoms: _135  and  _138
REMARK   54  A    between atoms: _138  and  _139
REMARK   55  A    between atoms: _142  and  _144
REMARK   56  A    between atoms: _144  and  _145
REMARK   57  A    between atoms: _147  and  _149
REMARK   58  A    between atoms: _149  and  _150
REMARK   59  A    between atoms: _153  and  _155
REMARK   60  A    between atoms: _155  and  _156
REMARK   61  A    between atoms: _155  and  _158
REMARK   62  A    between atoms: _158  and  _159
REMARK   63  A    between atoms: _159  and  _160
REMARK   64  A    between atoms: _160  and  _161
REMARK   65  A    between atoms: _171  and  _172
REMARK   66  A    between atoms: _177  and  _179
REMARK   67  A    between atoms: _179  and  _180
REMARK   68  A    between atoms: _179  and  _182
REMARK   69  A    between atoms: _185  and  _187
REMARK   70  A    between atoms: _187  and  _188
REMARK   71  A    between atoms: _187  and  _190
REMARK   72  A    between atoms: _190  and  _191
REMARK   73  A    between atoms: _194  and  _196
REMARK   74  A    between atoms: _196  and  _197
REMARK   75  A    between atoms: _196  and  _199
REMARK   76  A    between atoms: _199  and  _200
REMARK   77  A    between atoms: _203  and  _205
REMARK   78  A    between atoms: _205  and  _206
REMARK   79  A    between atoms: _205  and  _208
REMARK   80  A    between atoms: _208  and  _209
REMARK   81  A    between atoms: _214  and  _216
REMARK   82  A    between atoms: _216  and  _217
REMARK   83  A    between atoms: _216  and  _219
REMARK   84  A    between atoms: _219  and  _220
REMARK   85  A    between atoms: _223  and  _225
REMARK   86  A    between atoms: _225  and  _226
REMARK   87  A    between atoms: _225  and  _228
REMARK   88  A    between atoms: _228  and  _229
REMARK   89  A    between atoms: _235  and  _237
REMARK   90  A    between atoms: _237  and  _238
REMARK   91  A    between atoms: _240  and  _242
REMARK   92  A    between atoms: _242  and  _243
REMARK   93  A    between atoms: _242  and  _245
REMARK   94  A    between atoms: _245  and  _246
REMARK   95  A    between atoms: _246  and  _247
REMARK   96  A    between atoms: _249  and  _251
REMARK   97  A    between atoms: _251  and  _252
REMARK   98  A    between atoms: _251  and  _254
REMARK   99  A    between atoms: _254  and  _255
REMARK  100  A    between atoms: _258  and  _260
REMARK  101  A    between atoms: _260  and  _261
REMARK  102  A    between atoms: _260  and  _263
REMARK  103  A    between atoms: _263  and  _264
REMARK  104  A    between atoms: _264  and  _265
REMARK  105  A    between atoms: _265  and  _266
REMARK  106  A    between atoms: _266  and  _267
REMARK  107  A    between atoms: _271  and  _273
REMARK  108  A    between atoms: _273  and  _274
REMARK  109  A    between atoms: _273  and  _276
REMARK  110  A    between atoms: _279  and  _281
REMARK  111  A    between atoms: _281  and  _282
REMARK  112  A    between atoms: _281  and  _284
REMARK  113  A    between atoms: _284  and  _285
REMARK  114  A    between atoms: _287  and  _289
REMARK  115  A    between atoms: _289  and  _290
REMARK  116  A    between atoms: _289  and  _292
REMARK  117  A    between atoms: _295  and  _297
REMARK  118  A    between atoms: _297  and  _298
REMARK  119  A    between atoms: _300  and  _302
REMARK  120  A    between atoms: _302  and  _303
REMARK  121  A    between atoms: _306  and  _308
REMARK  122  A    between atoms: _308  and  _309
REMARK  123  A    between atoms: _308  and  _311
REMARK  124  A    between atoms: _311  and  _312
REMARK  125  A    between atoms: _315  and  _317
REMARK  126  A    between atoms: _317  and  _318
REMARK  127  A    between atoms: _317  and  _320
REMARK  128  A    between atoms: _323  and  _325
REMARK  129  A    between atoms: _325  and  _326
REMARK  130  A    between atoms: _325  and  _328
REMARK  131  A    between atoms: _328  and  _329
REMARK  132  A    between atoms: _332  and  _334
REMARK  133  A    between atoms: _334  and  _335
REMARK  134  A    between atoms: _338  and  _340
REMARK  135  A    between atoms: _340  and  _341
REMARK  136  A    between atoms: _340  and  _343
REMARK  137  A    between atoms: _343  and  _344
REMARK  138  A    between atoms: _344  and  _345
REMARK  139  A    between atoms: _345  and  _346
REMARK  140  A    between atoms: _355  and  _357
REMARK  141  A    between atoms: _357  and  _358
REMARK  142  A    between atoms: _357  and  _360
REMARK  143  A    between atoms: _360  and  _361
REMARK  144  A    between atoms: _361  and  _362
REMARK  145  A    between atoms: _365  and  _367
REMARK  146  A    between atoms: _367  and  _368
REMARK  147  A    between atoms: _367  and  _370
REMARK  148  A    between atoms: _370  and  _371
REMARK  149  A    between atoms: _371  and  _372
REMARK  150  A    between atoms: _375  and  _377
REMARK  151  A    between atoms: _377  and  _378
REMARK  152  A    between atoms: _377  and  _380
REMARK  153  A    between atoms: _380  and  _381
REMARK  154  A    between atoms: _384  and  _386
REMARK  155  A    between atoms: _386  and  _387
REMARK  156  A    between atoms: _386  and  _389
REMARK  157  A    between atoms: _389  and  _390
REMARK  158  A    between atoms: _390  and  _391
REMARK  159  A    between atoms: _391  and  _392
REMARK  160  A    between atoms: _401  and  _403
REMARK  161  A    between atoms: _403  and  _404
REMARK  162  A    between atoms: _403  and  _406
REMARK  163  A    between atoms: _406  and  _407
REMARK  164  A    between atoms: _410  and  _412
REMARK  165  A    between atoms: _412  and  _413
REMARK  166  A    between atoms: _412  and  _415
REMARK  167  A    between atoms: _415  and  _416
REMARK  168  A    between atoms: _419  and  _421
REMARK  169  A    between atoms: _421  and  _422
REMARK  170  A    between atoms: _426  and  _427
REMARK  171  A    between atoms: _432  and  _434
REMARK  172  A    between atoms: _434  and  _435
REMARK  173  A    between atoms: _434  and  _437
REMARK  174  A    between atoms: _437  and  _438
REMARK  175  A    between atoms: _443  and  _445
REMARK  176  A    between atoms: _445  and  _446
REMARK  177  A    between atoms: _445  and  _448
REMARK  178  A    between atoms: _448  and  _449
REMARK  179  A    between atoms: _456  and  _457
REMARK  180  A    between atoms: _462  and  _464
REMARK  181  A    between atoms: _464  and  _465
REMARK  182  A    between atoms: _464  and  _467
REMARK  183  A    between atoms: _467  and  _468
REMARK  184  A    between atoms: _471  and  _473
REMARK  185  A    between atoms: _473  and  _474
REMARK  186  A    between atoms: _473  and  _476
REMARK  187  A    between atoms: _476  and  _477
REMARK  188  A    between atoms: _480  and  _482
REMARK  189  A    between atoms: _482  and  _483
REMARK  190  A    between atoms: _482  and  _485
REMARK  191  A    between atoms: _485  and  _486
REMARK  192  A    between atoms: _486  and  _487
REMARK  193  A    between atoms: _489  and  _491
REMARK  194  A    between atoms: _491  and  _492
REMARK  195  A    between atoms: _491  and  _494
REMARK  196  A    between atoms: _494  and  _495
REMARK  197  A    between atoms: _495  and  _496
REMARK  198  A    between atoms: _501  and  _503
REMARK  199  A    between atoms: _503  and  _504
REMARK  200  A    between atoms: _503  and  _506
REMARK  201  A    between atoms: _506  and  _507
REMARK  202  A    between atoms: _507  and  _508
REMARK  203  A    between atoms: _511  and  _513
REMARK  204  A    between atoms: _513  and  _514
REMARK  205  A    between atoms: _513  and  _516
REMARK  206  A    between atoms: _516  and  _517
REMARK  207  A    between atoms: _520  and  _522
REMARK  208  A    between atoms: _522  and  _523
REMARK  209  A    between atoms: _522  and  _525
REMARK  210  A    between atoms: _525  and  _526
REMARK  211  A    between atoms: _529  and  _531
REMARK  212  A    between atoms: _531  and  _532
REMARK  213  A    between atoms: _531  and  _534
REMARK  214  A    between atoms: _534  and  _535
REMARK  215  A    between atoms: _543  and  _544
REMARK  216  A    between atoms: _543  and  _546
REMARK  217  A    between atoms: _546  and  _547
REMARK  218  A    between atoms: _547  and  _548
REMARK  219  A    between atoms: _551  and  _553
REMARK  220  A    between atoms: _553  and  _554
REMARK  221  A    between atoms: _553  and  _556
REMARK  222  A    between atoms: _556  and  _557
REMARK  223  A    between atoms: _562  and  _564
REMARK  224  A    between atoms: _564  and  _565
REMARK  225  A    between atoms: _564  and  _567
REMARK  226  A    between atoms: _567  and  _568
REMARK  227  A    between atoms: _568  and  _569
REMARK  228  A    between atoms: _569  and  _570
REMARK  229  A    between atoms: _579  and  _581
REMARK  230  A    between atoms: _581  and  _582
REMARK  231  A    between atoms: _581  and  _584
REMARK  232  A    between atoms: _584  and  _585
REMARK  233  A    between atoms: _590  and  _591
REMARK  234  A    between atoms: _590  and  _593
REMARK  235  A    between atoms: _593  and  _594
REMARK  236  A    between atoms: _597  and  _599
REMARK  237  A    between atoms: _599  and  _600
REMARK  238  A    between atoms: _599  and  _602
REMARK  239  A    between atoms: _602  and  _603
REMARK  240  A    between atoms: _603  and  _604
REMARK  241  A    between atoms: _604  and  _605
REMARK  242  A    between atoms: _614  and  _616
REMARK  243  A    between atoms: _616  and  _617
REMARK                            x       y       z     vdW  Elec       q    Type
REMARK                         _______ _______ _______ _____ _____    ______ ____
ROOT
ATOM      1  O   HOH     1      82.819  16.787 132.713  0.00  0.00    +0.000 OA
ENDROOT
TORSDOF 0
