REMARK  Name = ../refined-set-2016/4u1b/4u1b_pocket.pdb
REMARK  178 active torsions:
REMARK  status: ('A' for Active; 'I' for Inactive)
REMARK    1  A    between atoms: _1  and  _3
REMARK    2  A    between atoms: _3  and  _4
REMARK    3  A    between atoms: _3  and  _6
REMARK    4  A    between atoms: _6  and  _7
REMARK    5  A    between atoms: _12  and  _13
REMARK    6  A    between atoms: _15  and  _17
REMARK    7  A    between atoms: _17  and  _18
REMARK    8  A    between atoms: _17  and  _20
REMARK    9  A    between atoms: _20  and  _21
REMARK   10  A    between atoms: _21  and  _22
REMARK   11  A    between atoms: _26  and  _27
REMARK   12  A    between atoms: _32  and  _34
REMARK   13  A    between atoms: _34  and  _35
REMARK   14  A    between atoms: _34  and  _37
REMARK   15  A    between atoms: _37  and  _38
REMARK   16  A    between atoms: _41  and  _42
REMARK   17  A    between atoms: _47  and  _49
REMARK   18  A    between atoms: _49  and  _50
REMARK   19  A    between atoms: _49  and  _52
REMARK   20  A    between atoms: _52  and  _53
REMARK   21  A    between atoms: _56  and  _58
REMARK   22  A    between atoms: _58  and  _59
REMARK   23  A    between atoms: _58  and  _61
REMARK   24  A    between atoms: _61  and  _62
REMARK   25  A    between atoms: _67  and  _69
REMARK   26  A    between atoms: _69  and  _70
REMARK   27  A    between atoms: _69  and  _72
REMARK   28  A    between atoms: _72  and  _73
REMARK   29  A    between atoms: _78  and  _79
REMARK   30  A    between atoms: _81  and  _83
REMARK   31  A    between atoms: _83  and  _84
REMARK   32  A    between atoms: _83  and  _86
REMARK   33  A    between atoms: _86  and  _87
REMARK   34  A    between atoms: _92  and  _93
REMARK   35  A    between atoms: _95  and  _97
REMARK   36  A    between atoms: _97  and  _98
REMARK   37  A    between atoms: _97  and  _100
REMARK   38  A    between atoms: _100  and  _101
REMARK   39  A    between atoms: _106  and  _108
REMARK   40  A    between atoms: _108  and  _109
REMARK   41  A    between atoms: _108  and  _111
REMARK   42  A    between atoms: _111  and  _112
REMARK   43  A    between atoms: _119  and  _120
REMARK   44  A    between atoms: _125  and  _127
REMARK   45  A    between atoms: _127  and  _128
REMARK   46  A    between atoms: _127  and  _130
REMARK   47  A    between atoms: _130  and  _131
REMARK   48  A    between atoms: _131  and  _132
REMARK   49  A    between atoms: _132  and  _133
REMARK   50  A    between atoms: _133  and  _134
REMARK   51  A    between atoms: _138  and  _140
REMARK   52  A    between atoms: _140  and  _141
REMARK   53  A    between atoms: _140  and  _143
REMARK   54  A    between atoms: _143  and  _144
REMARK   55  A    between atoms: _146  and  _148
REMARK   56  A    between atoms: _148  and  _149
REMARK   57  A    between atoms: _148  and  _151
REMARK   58  A    between atoms: _153  and  _155
REMARK   59  A    between atoms: _155  and  _156
REMARK   60  A    between atoms: _155  and  _158
REMARK   61  A    between atoms: _160  and  _162
REMARK   62  A    between atoms: _162  and  _163
REMARK   63  A    between atoms: _162  and  _165
REMARK   64  A    between atoms: _167  and  _169
REMARK   65  A    between atoms: _169  and  _170
REMARK   66  A    between atoms: _169  and  _172
REMARK   67  A    between atoms: _172  and  _173
REMARK   68  A    between atoms: _178  and  _180
REMARK   69  A    between atoms: _180  and  _181
REMARK   70  A    between atoms: _183  and  _185
REMARK   71  A    between atoms: _185  and  _186
REMARK   72  A    between atoms: _185  and  _188
REMARK   73  A    between atoms: _188  and  _189
REMARK   74  A    between atoms: _192  and  _194
REMARK   75  A    between atoms: _194  and  _195
REMARK   76  A    between atoms: _194  and  _197
REMARK   77  A    between atoms: _197  and  _198
REMARK   78  A    between atoms: _203  and  _205
REMARK   79  A    between atoms: _205  and  _206
REMARK   80  A    between atoms: _205  and  _208
REMARK   81  A    between atoms: _211  and  _213
REMARK   82  A    between atoms: _213  and  _214
REMARK   83  A    between atoms: _213  and  _216
REMARK   84  A    between atoms: _216  and  _217
REMARK   85  A    between atoms: _220  and  _222
REMARK   86  A    between atoms: _222  and  _223
REMARK   87  A    between atoms: _222  and  _225
REMARK   88  A    between atoms: _225  and  _226
REMARK   89  A    between atoms: _229  and  _231
REMARK   90  A    between atoms: _231  and  _232
REMARK   91  A    between atoms: _231  and  _234
REMARK   92  A    between atoms: _234  and  _235
REMARK   93  A    between atoms: _238  and  _240
REMARK   94  A    between atoms: _240  and  _241
REMARK   95  A    between atoms: _240  and  _243
REMARK   96  A    between atoms: _243  and  _244
REMARK   97  A    between atoms: _247  and  _249
REMARK   98  A    between atoms: _249  and  _250
REMARK   99  A    between atoms: _252  and  _254
REMARK  100  A    between atoms: _254  and  _255
REMARK  101  A    between atoms: _254  and  _257
REMARK  102  A    between atoms: _261  and  _263
REMARK  103  A    between atoms: _263  and  _264
REMARK  104  A    between atoms: _263  and  _266
REMARK  105  A    between atoms: _266  and  _267
REMARK  106  A    between atoms: _270  and  _272
REMARK  107  A    between atoms: _272  and  _273
REMARK  108  A    between atoms: _272  and  _275
REMARK  109  A    between atoms: _275  and  _276
REMARK  110  A    between atoms: _281  and  _283
REMARK  111  A    between atoms: _283  and  _284
REMARK  112  A    between atoms: _283  and  _286
REMARK  113  A    between atoms: _286  and  _287
REMARK  114  A    between atoms: _292  and  _293
REMARK  115  A    between atoms: _295  and  _297
REMARK  116  A    between atoms: _297  and  _298
REMARK  117  A    between atoms: _297  and  _300
REMARK  118  A    between atoms: _302  and  _304
REMARK  119  A    between atoms: _304  and  _305
REMARK  120  A    between atoms: _307  and  _309
REMARK  121  A    between atoms: _309  and  _310
REMARK  122  A    between atoms: _309  and  _312
REMARK  123  A    between atoms: _312  and  _313
REMARK  124  A    between atoms: _317  and  CO_451
REMARK  125  A    between atoms: _318  and  _320
REMARK  126  A    between atoms: _320  and  _321
REMARK  127  A    between atoms: _323  and  _325
REMARK  128  A    between atoms: _325  and  _326
REMARK  129  A    between atoms: _325  and  _328
REMARK  130  A    between atoms: _328  and  _329
REMARK  131  A    between atoms: _332  and  _334
REMARK  132  A    between atoms: _334  and  _335
REMARK  133  A    between atoms: _334  and  _337
REMARK  134  A    between atoms: _337  and  _338
REMARK  135  A    between atoms: _344  and  _346
REMARK  136  A    between atoms: _346  and  _347
REMARK  137  A    between atoms: _346  and  _349
REMARK  138  A    between atoms: _349  and  _350
REMARK  139  A    between atoms: _355  and  _357
REMARK  140  A    between atoms: _357  and  _358
REMARK  141  A    between atoms: _357  and  _360
REMARK  142  A    between atoms: _360  and  _361
REMARK  143  A    between atoms: _364  and  _366
REMARK  144  A    between atoms: _366  and  _367
REMARK  145  A    between atoms: _366  and  _369
REMARK  146  A    between atoms: _369  and  _370
REMARK  147  A    between atoms: _373  and  _375
REMARK  148  A    between atoms: _375  and  _376
REMARK  149  A    between atoms: _375  and  _378
REMARK  150  A    between atoms: _378  and  _379
REMARK  151  A    between atoms: _379  and  _380
REMARK  152  A    between atoms: _383  and  _385
REMARK  153  A    between atoms: _385  and  _386
REMARK  154  A    between atoms: _385  and  _388
REMARK  155  A    between atoms: _388  and  _389
REMARK  156  A    between atoms: _389  and  _390
REMARK  157  A    between atoms: _392  and  _394
REMARK  158  A    between atoms: _394  and  _395
REMARK  159  A    between atoms: _394  and  _397
REMARK  160  A    between atoms: _397  and  _398
REMARK  161  A    between atoms: _408  and  _410
REMARK  162  A    between atoms: _410  and  _411
REMARK  163  A    between atoms: _410  and  _413
REMARK  164  A    between atoms: _413  and  _414
REMARK  165  A    between atoms: _414  and  _415
REMARK  166  A    between atoms: _420  and  _422
REMARK  167  A    between atoms: _422  and  _423
REMARK  168  A    between atoms: _422  and  _425
REMARK  169  A    between atoms: _425  and  _426
REMARK  170  A    between atoms: _432  and  _434
REMARK  171  A    between atoms: _434  and  _435
REMARK  172  A    between atoms: _434  and  _437
REMARK  173  A    between atoms: _437  and  _438
REMARK  174  A    between atoms: _438  and  _439
REMARK  175  A    between atoms: _442  and  _444
REMARK  176  A    between atoms: _444  and  _445
REMARK  177  A    between atoms: _444  and  _447
REMARK  178  A    between atoms: _447  and  _448
REMARK                            x       y       z     vdW  Elec       q    Type
REMARK                         _______ _______ _______ _____ _____    ______ ____
ROOT
ATOM      1  CG  TYR A   1      30.317 -10.454  16.430  0.00  0.00    -0.020 A 
ATOM      2  CD2 TYR A   1      30.325  -9.126  16.832  0.00  0.00    -0.001 A 
ATOM      3  CE2 TYR A   1      30.383  -8.078  15.923  0.00  0.00    +0.036 A 
ATOM      4  CZ  TYR A   1      30.367  -8.378  14.552  0.00  0.00    +0.134 A 
ATOM      5  CE1 TYR A   1      30.283  -9.696  14.133  0.00  0.00    +0.036 A 
ATOM      6  CD1 TYR A   1      30.246 -10.732  15.084  0.00  0.00    -0.001 A 
ENDROOT
BRANCH   4   7
ATOM      7  OH  TYR A   1      30.411  -7.332  13.613  0.00  0.00    -0.506 OA
ATOM      8  HH  TYR A   1      30.393  -7.710  12.698  0.00  0.00    +0.292 HD
ENDBRANCH   4   7
BRANCH   1   9
ATOM      9  CB  TYR A   1      30.229 -11.574  17.478  0.00  0.00    +0.051 C 
BRANCH   9  10
ATOM     10  CA  TYR A   1      31.559 -12.225  17.826  0.00  0.00    +0.137 C 
BRANCH  10  11
ATOM     11  N   TYR A   1      32.501 -11.227  18.283  0.00  0.00    -0.239 NA
ATOM     12  H   TYR A   1      32.321 -10.225  18.072  0.00  0.00    +0.142 HD
ENDBRANCH  10  11
BRANCH  10  13
ATOM     13  C   TYR A   1      32.021 -13.001  16.606  0.00  0.00    +0.224 C 
ATOM     14  O   TYR A   1      31.426 -14.043  16.276  0.00  0.00    -0.287 OA
ENDBRANCH  10  13
ENDBRANCH   9  10
ENDBRANCH   1   9
TORSDOF 5
REMARK  Name = ../refined-set-2016/4u1b/4u1b_pocket.pdb
REMARK  178 active torsions:
REMARK  status: ('A' for Active; 'I' for Inactive)
REMARK    1  A    between atoms: _1  and  _3
REMARK    2  A    between atoms: _3  and  _4
REMARK    3  A    between atoms: _3  and  _6
REMARK    4  A    between atoms: _6  and  _7
REMARK    5  A    between atoms: _12  and  _13
REMARK    6  A    between atoms: _15  and  _17
REMARK    7  A    between atoms: _17  and  _18
REMARK    8  A    between atoms: _17  and  _20
REMARK    9  A    between atoms: _20  and  _21
REMARK   10  A    between atoms: _21  and  _22
REMARK   11  A    between atoms: _26  and  _27
REMARK   12  A    between atoms: _32  and  _34
REMARK   13  A    between atoms: _34  and  _35
REMARK   14  A    between atoms: _34  and  _37
REMARK   15  A    between atoms: _37  and  _38
REMARK   16  A    between atoms: _41  and  _42
REMARK   17  A    between atoms: _47  and  _49
REMARK   18  A    between atoms: _49  and  _50
REMARK   19  A    between atoms: _49  and  _52
REMARK   20  A    between atoms: _52  and  _53
REMARK   21  A    between atoms: _56  and  _58
REMARK   22  A    between atoms: _58  and  _59
REMARK   23  A    between atoms: _58  and  _61
REMARK   24  A    between atoms: _61  and  _62
REMARK   25  A    between atoms: _67  and  _69
REMARK   26  A    between atoms: _69  and  _70
REMARK   27  A    between atoms: _69  and  _72
REMARK   28  A    between atoms: _72  and  _73
REMARK   29  A    between atoms: _78  and  _79
REMARK   30  A    between atoms: _81  and  _83
REMARK   31  A    between atoms: _83  and  _84
REMARK   32  A    between atoms: _83  and  _86
REMARK   33  A    between atoms: _86  and  _87
REMARK   34  A    between atoms: _92  and  _93
REMARK   35  A    between atoms: _95  and  _97
REMARK   36  A    between atoms: _97  and  _98
REMARK   37  A    between atoms: _97  and  _100
REMARK   38  A    between atoms: _100  and  _101
REMARK   39  A    between atoms: _106  and  _108
REMARK   40  A    between atoms: _108  and  _109
REMARK   41  A    between atoms: _108  and  _111
REMARK   42  A    between atoms: _111  and  _112
REMARK   43  A    between atoms: _119  and  _120
REMARK   44  A    between atoms: _125  and  _127
REMARK   45  A    between atoms: _127  and  _128
REMARK   46  A    between atoms: _127  and  _130
REMARK   47  A    between atoms: _130  and  _131
REMARK   48  A    between atoms: _131  and  _132
REMARK   49  A    between atoms: _132  and  _133
REMARK   50  A    between atoms: _133  and  _134
REMARK   51  A    between atoms: _138  and  _140
REMARK   52  A    between atoms: _140  and  _141
REMARK   53  A    between atoms: _140  and  _143
REMARK   54  A    between atoms: _143  and  _144
REMARK   55  A    between atoms: _146  and  _148
REMARK   56  A    between atoms: _148  and  _149
REMARK   57  A    between atoms: _148  and  _151
REMARK   58  A    between atoms: _153  and  _155
REMARK   59  A    between atoms: _155  and  _156
REMARK   60  A    between atoms: _155  and  _158
REMARK   61  A    between atoms: _160  and  _162
REMARK   62  A    between atoms: _162  and  _163
REMARK   63  A    between atoms: _162  and  _165
REMARK   64  A    between atoms: _167  and  _169
REMARK   65  A    between atoms: _169  and  _170
REMARK   66  A    between atoms: _169  and  _172
REMARK   67  A    between atoms: _172  and  _173
REMARK   68  A    between atoms: _178  and  _180
REMARK   69  A    between atoms: _180  and  _181
REMARK   70  A    between atoms: _183  and  _185
REMARK   71  A    between atoms: _185  and  _186
REMARK   72  A    between atoms: _185  and  _188
REMARK   73  A    between atoms: _188  and  _189
REMARK   74  A    between atoms: _192  and  _194
REMARK   75  A    between atoms: _194  and  _195
REMARK   76  A    between atoms: _194  and  _197
REMARK   77  A    between atoms: _197  and  _198
REMARK   78  A    between atoms: _203  and  _205
REMARK   79  A    between atoms: _205  and  _206
REMARK   80  A    between atoms: _205  and  _208
REMARK   81  A    between atoms: _211  and  _213
REMARK   82  A    between atoms: _213  and  _214
REMARK   83  A    between atoms: _213  and  _216
REMARK   84  A    between atoms: _216  and  _217
REMARK   85  A    between atoms: _220  and  _222
REMARK   86  A    between atoms: _222  and  _223
REMARK   87  A    between atoms: _222  and  _225
REMARK   88  A    between atoms: _225  and  _226
REMARK   89  A    between atoms: _229  and  _231
REMARK   90  A    between atoms: _231  and  _232
REMARK   91  A    between atoms: _231  and  _234
REMARK   92  A    between atoms: _234  and  _235
REMARK   93  A    between atoms: _238  and  _240
REMARK   94  A    between atoms: _240  and  _241
REMARK   95  A    between atoms: _240  and  _243
REMARK   96  A    between atoms: _243  and  _244
REMARK   97  A    between atoms: _247  and  _249
REMARK   98  A    between atoms: _249  and  _250
REMARK   99  A    between atoms: _252  and  _254
REMARK  100  A    between atoms: _254  and  _255
REMARK  101  A    between atoms: _254  and  _257
REMARK  102  A    between atoms: _261  and  _263
REMARK  103  A    between atoms: _263  and  _264
REMARK  104  A    between atoms: _263  and  _266
REMARK  105  A    between atoms: _266  and  _267
REMARK  106  A    between atoms: _270  and  _272
REMARK  107  A    between atoms: _272  and  _273
REMARK  108  A    between atoms: _272  and  _275
REMARK  109  A    between atoms: _275  and  _276
REMARK  110  A    between atoms: _281  and  _283
REMARK  111  A    between atoms: _283  and  _284
REMARK  112  A    between atoms: _283  and  _286
REMARK  113  A    between atoms: _286  and  _287
REMARK  114  A    between atoms: _292  and  _293
REMARK  115  A    between atoms: _295  and  _297
REMARK  116  A    between atoms: _297  and  _298
REMARK  117  A    between atoms: _297  and  _300
REMARK  118  A    between atoms: _302  and  _304
REMARK  119  A    between atoms: _304  and  _305
REMARK  120  A    between atoms: _307  and  _309
REMARK  121  A    between atoms: _309  and  _310
REMARK  122  A    between atoms: _309  and  _312
REMARK  123  A    between atoms: _312  and  _313
REMARK  124  A    between atoms: _317  and  CO_451
REMARK  125  A    between atoms: _318  and  _320
REMARK  126  A    between atoms: _320  and  _321
REMARK  127  A    between atoms: _323  and  _325
REMARK  128  A    between atoms: _325  and  _326
REMARK  129  A    between atoms: _325  and  _328
REMARK  130  A    between atoms: _328  and  _329
REMARK  131  A    between atoms: _332  and  _334
REMARK  132  A    between atoms: _334  and  _335
REMARK  133  A    between atoms: _334  and  _337
REMARK  134  A    between atoms: _337  and  _338
REMARK  135  A    between atoms: _344  and  _346
REMARK  136  A    between atoms: _346  and  _347
REMARK  137  A    between atoms: _346  and  _349
REMARK  138  A    between atoms: _349  and  _350
REMARK  139  A    between atoms: _355  and  _357
REMARK  140  A    between atoms: _357  and  _358
REMARK  141  A    between atoms: _357  and  _360
REMARK  142  A    between atoms: _360  and  _361
REMARK  143  A    between atoms: _364  and  _366
REMARK  144  A    between atoms: _366  and  _367
REMARK  145  A    between atoms: _366  and  _369
REMARK  146  A    between atoms: _369  and  _370
REMARK  147  A    between atoms: _373  and  _375
REMARK  148  A    between atoms: _375  and  _376
REMARK  149  A    between atoms: _375  and  _378
REMARK  150  A    between atoms: _378  and  _379
REMARK  151  A    between atoms: _379  and  _380
REMARK  152  A    between atoms: _383  and  _385
REMARK  153  A    between atoms: _385  and  _386
REMARK  154  A    between atoms: _385  and  _388
REMARK  155  A    between atoms: _388  and  _389
REMARK  156  A    between atoms: _389  and  _390
REMARK  157  A    between atoms: _392  and  _394
REMARK  158  A    between atoms: _394  and  _395
REMARK  159  A    between atoms: _394  and  _397
REMARK  160  A    between atoms: _397  and  _398
REMARK  161  A    between atoms: _408  and  _410
REMARK  162  A    between atoms: _410  and  _411
REMARK  163  A    between atoms: _410  and  _413
REMARK  164  A    between atoms: _413  and  _414
REMARK  165  A    between atoms: _414  and  _415
REMARK  166  A    between atoms: _420  and  _422
REMARK  167  A    between atoms: _422  and  _423
REMARK  168  A    between atoms: _422  and  _425
REMARK  169  A    between atoms: _425  and  _426
REMARK  170  A    between atoms: _432  and  _434
REMARK  171  A    between atoms: _434  and  _435
REMARK  172  A    between atoms: _434  and  _437
REMARK  173  A    between atoms: _437  and  _438
REMARK  174  A    between atoms: _438  and  _439
REMARK  175  A    between atoms: _442  and  _444
REMARK  176  A    between atoms: _444  and  _445
REMARK  177  A    between atoms: _444  and  _447
REMARK  178  A    between atoms: _447  and  _448
REMARK                            x       y       z     vdW  Elec       q    Type
REMARK                         _______ _______ _______ _____ _____    ______ ____
ROOT
ATOM      1  CA  GLU A   1      27.093  -6.475  23.656  0.00  0.00    +0.134 C 
ENDROOT
BRANCH   1   2
ATOM      2  N   GLU A   1      28.521  -6.847  23.651  0.00  0.00    -0.239 NA
ATOM      3  H   GLU A   1      28.909  -7.436  22.886  0.00  0.00    +0.142 HD
ENDBRANCH   1   2
BRANCH   1   4
ATOM      4  C   GLU A   1      26.327  -7.205  24.783  0.00  0.00    +0.224 C 
ATOM      5  O   GLU A   1      25.484  -6.613  25.427  0.00  0.00    -0.287 OA
ENDBRANCH   1   4
BRANCH   1   6
ATOM      6  CB  GLU A   1      26.358  -6.655  22.292  0.00  0.00    +0.037 C 
BRANCH   6   7
ATOM      7  CG  GLU A   1      26.978  -5.767  21.211  0.00  0.00    +0.116 C 
BRANCH   7   8
ATOM      8  CD  GLU A   1      26.323  -5.899  19.831  0.00  0.00    +0.365 C 
ATOM      9  OE2 GLU A   1      25.403  -6.701  19.611  0.00  0.00    -0.246 OA
ATOM     10  OE1 GLU A   1      26.781  -5.186  18.938  0.00  0.00    -0.246 OA
ENDBRANCH   7   8
ENDBRANCH   6   7
ENDBRANCH   1   6
TORSDOF 5
REMARK  Name = ../refined-set-2016/4u1b/4u1b_pocket.pdb
REMARK  178 active torsions:
REMARK  status: ('A' for Active; 'I' for Inactive)
REMARK    1  A    between atoms: _1  and  _3
REMARK    2  A    between atoms: _3  and  _4
REMARK    3  A    between atoms: _3  and  _6
REMARK    4  A    between atoms: _6  and  _7
REMARK    5  A    between atoms: _12  and  _13
REMARK    6  A    between atoms: _15  and  _17
REMARK    7  A    between atoms: _17  and  _18
REMARK    8  A    between atoms: _17  and  _20
REMARK    9  A    between atoms: _20  and  _21
REMARK   10  A    between atoms: _21  and  _22
REMARK   11  A    between atoms: _26  and  _27
REMARK   12  A    between atoms: _32  and  _34
REMARK   13  A    between atoms: _34  and  _35
REMARK   14  A    between atoms: _34  and  _37
REMARK   15  A    between atoms: _37  and  _38
REMARK   16  A    between atoms: _41  and  _42
REMARK   17  A    between atoms: _47  and  _49
REMARK   18  A    between atoms: _49  and  _50
REMARK   19  A    between atoms: _49  and  _52
REMARK   20  A    between atoms: _52  and  _53
REMARK   21  A    between atoms: _56  and  _58
REMARK   22  A    between atoms: _58  and  _59
REMARK   23  A    between atoms: _58  and  _61
REMARK   24  A    between atoms: _61  and  _62
REMARK   25  A    between atoms: _67  and  _69
REMARK   26  A    between atoms: _69  and  _70
REMARK   27  A    between atoms: _69  and  _72
REMARK   28  A    between atoms: _72  and  _73
REMARK   29  A    between atoms: _78  and  _79
REMARK   30  A    between atoms: _81  and  _83
REMARK   31  A    between atoms: _83  and  _84
REMARK   32  A    between atoms: _83  and  _86
REMARK   33  A    between atoms: _86  and  _87
REMARK   34  A    between atoms: _92  and  _93
REMARK   35  A    between atoms: _95  and  _97
REMARK   36  A    between atoms: _97  and  _98
REMARK   37  A    between atoms: _97  and  _100
REMARK   38  A    between atoms: _100  and  _101
REMARK   39  A    between atoms: _106  and  _108
REMARK   40  A    between atoms: _108  and  _109
REMARK   41  A    between atoms: _108  and  _111
REMARK   42  A    between atoms: _111  and  _112
REMARK   43  A    between atoms: _119  and  _120
REMARK   44  A    between atoms: _125  and  _127
REMARK   45  A    between atoms: _127  and  _128
REMARK   46  A    between atoms: _127  and  _130
REMARK   47  A    between atoms: _130  and  _131
REMARK   48  A    between atoms: _131  and  _132
REMARK   49  A    between atoms: _132  and  _133
REMARK   50  A    between atoms: _133  and  _134
REMARK   51  A    between atoms: _138  and  _140
REMARK   52  A    between atoms: _140  and  _141
REMARK   53  A    between atoms: _140  and  _143
REMARK   54  A    between atoms: _143  and  _144
REMARK   55  A    between atoms: _146  and  _148
REMARK   56  A    between atoms: _148  and  _149
REMARK   57  A    between atoms: _148  and  _151
REMARK   58  A    between atoms: _153  and  _155
REMARK   59  A    between atoms: _155  and  _156
REMARK   60  A    between atoms: _155  and  _158
REMARK   61  A    between atoms: _160  and  _162
REMARK   62  A    between atoms: _162  and  _163
REMARK   63  A    between atoms: _162  and  _165
REMARK   64  A    between atoms: _167  and  _169
REMARK   65  A    between atoms: _169  and  _170
REMARK   66  A    between atoms: _169  and  _172
REMARK   67  A    between atoms: _172  and  _173
REMARK   68  A    between atoms: _178  and  _180
REMARK   69  A    between atoms: _180  and  _181
REMARK   70  A    between atoms: _183  and  _185
REMARK   71  A    between atoms: _185  and  _186
REMARK   72  A    between atoms: _185  and  _188
REMARK   73  A    between atoms: _188  and  _189
REMARK   74  A    between atoms: _192  and  _194
REMARK   75  A    between atoms: _194  and  _195
REMARK   76  A    between atoms: _194  and  _197
REMARK   77  A    between atoms: _197  and  _198
REMARK   78  A    between atoms: _203  and  _205
REMARK   79  A    between atoms: _205  and  _206
REMARK   80  A    between atoms: _205  and  _208
REMARK   81  A    between atoms: _211  and  _213
REMARK   82  A    between atoms: _213  and  _214
REMARK   83  A    between atoms: _213  and  _216
REMARK   84  A    between atoms: _216  and  _217
REMARK   85  A    between atoms: _220  and  _222
REMARK   86  A    between atoms: _222  and  _223
REMARK   87  A    between atoms: _222  and  _225
REMARK   88  A    between atoms: _225  and  _226
REMARK   89  A    between atoms: _229  and  _231
REMARK   90  A    between atoms: _231  and  _232
REMARK   91  A    between atoms: _231  and  _234
REMARK   92  A    between atoms: _234  and  _235
REMARK   93  A    between atoms: _238  and  _240
REMARK   94  A    between atoms: _240  and  _241
REMARK   95  A    between atoms: _240  and  _243
REMARK   96  A    between atoms: _243  and  _244
REMARK   97  A    between atoms: _247  and  _249
REMARK   98  A    between atoms: _249  and  _250
REMARK   99  A    between atoms: _252  and  _254
REMARK  100  A    between atoms: _254  and  _255
REMARK  101  A    between atoms: _254  and  _257
REMARK  102  A    between atoms: _261  and  _263
REMARK  103  A    between atoms: _263  and  _264
REMARK  104  A    between atoms: _263  and  _266
REMARK  105  A    between atoms: _266  and  _267
REMARK  106  A    between atoms: _270  and  _272
REMARK  107  A    between atoms: _272  and  _273
REMARK  108  A    between atoms: _272  and  _275
REMARK  109  A    between atoms: _275  and  _276
REMARK  110  A    between atoms: _281  and  _283
REMARK  111  A    between atoms: _283  and  _284
REMARK  112  A    between atoms: _283  and  _286
REMARK  113  A    between atoms: _286  and  _287
REMARK  114  A    between atoms: _292  and  _293
REMARK  115  A    between atoms: _295  and  _297
REMARK  116  A    between atoms: _297  and  _298
REMARK  117  A    between atoms: _297  and  _300
REMARK  118  A    between atoms: _302  and  _304
REMARK  119  A    between atoms: _304  and  _305
REMARK  120  A    between atoms: _307  and  _309
REMARK  121  A    between atoms: _309  and  _310
REMARK  122  A    between atoms: _309  and  _312
REMARK  123  A    between atoms: _312  and  _313
REMARK  124  A    between atoms: _317  and  CO_451
REMARK  125  A    between atoms: _318  and  _320
REMARK  126  A    between atoms: _320  and  _321
REMARK  127  A    between atoms: _323  and  _325
REMARK  128  A    between atoms: _325  and  _326
REMARK  129  A    between atoms: _325  and  _328
REMARK  130  A    between atoms: _328  and  _329
REMARK  131  A    between atoms: _332  and  _334
REMARK  132  A    between atoms: _334  and  _335
REMARK  133  A    between atoms: _334  and  _337
REMARK  134  A    between atoms: _337  and  _338
REMARK  135  A    between atoms: _344  and  _346
REMARK  136  A    between atoms: _346  and  _347
REMARK  137  A    between atoms: _346  and  _349
REMARK  138  A    between atoms: _349  and  _350
REMARK  139  A    between atoms: _355  and  _357
REMARK  140  A    between atoms: _357  and  _358
REMARK  141  A    between atoms: _357  and  _360
REMARK  142  A    between atoms: _360  and  _361
REMARK  143  A    between atoms: _364  and  _366
REMARK  144  A    between atoms: _366  and  _367
REMARK  145  A    between atoms: _366  and  _369
REMARK  146  A    between atoms: _369  and  _370
REMARK  147  A    between atoms: _373  and  _375
REMARK  148  A    between atoms: _375  and  _376
REMARK  149  A    between atoms: _375  and  _378
REMARK  150  A    between atoms: _378  and  _379
REMARK  151  A    between atoms: _379  and  _380
REMARK  152  A    between atoms: _383  and  _385
REMARK  153  A    between atoms: _385  and  _386
REMARK  154  A    between atoms: _385  and  _388
REMARK  155  A    between atoms: _388  and  _389
REMARK  156  A    between atoms: _389  and  _390
REMARK  157  A    between atoms: _392  and  _394
REMARK  158  A    between atoms: _394  and  _395
REMARK  159  A    between atoms: _394  and  _397
REMARK  160  A    between atoms: _397  and  _398
REMARK  161  A    between atoms: _408  and  _410
REMARK  162  A    between atoms: _410  and  _411
REMARK  163  A    between atoms: _410  and  _413
REMARK  164  A    between atoms: _413  and  _414
REMARK  165  A    between atoms: _414  and  _415
REMARK  166  A    between atoms: _420  and  _422
REMARK  167  A    between atoms: _422  and  _423
REMARK  168  A    between atoms: _422  and  _425
REMARK  169  A    between atoms: _425  and  _426
REMARK  170  A    between atoms: _432  and  _434
REMARK  171  A    between atoms: _434  and  _435
REMARK  172  A    between atoms: _434  and  _437
REMARK  173  A    between atoms: _437  and  _438
REMARK  174  A    between atoms: _438  and  _439
REMARK  175  A    between atoms: _442  and  _444
REMARK  176  A    between atoms: _444  and  _445
REMARK  177  A    between atoms: _444  and  _447
REMARK  178  A    between atoms: _447  and  _448
REMARK                            x       y       z     vdW  Elec       q    Type
REMARK                         _______ _______ _______ _____ _____    ______ ____
ROOT
ATOM      1  CA  TYR A   7      24.640 -13.713  15.440  0.00  0.00    +0.153 C 
ENDROOT
BRANCH   1   2
ATOM      2  C   TYR A   7      24.397 -14.677  14.266  0.00  0.00    +0.241 C 
ATOM      3  O   TYR A   7      23.249 -14.947  13.841  0.00  0.00    -0.273 OA
ATOM      4  N   ASN A   8      25.507 -15.145  13.725  0.00  0.00    -0.297 N 
ATOM      5  H   ASN A   8      26.409 -14.741  14.050  0.00  0.00    +0.150 HD
BRANCH   4   6
ATOM      6  CA  ASN A   8      25.562 -16.196  12.697  0.00  0.00    +0.158 C 
BRANCH   6   7
ATOM      7  C   ASN A   8      25.004 -15.717  11.331  0.00  0.00    +0.241 C 
ATOM      8  N   PHE A   9      24.818 -14.420  11.144  0.00  0.00    -0.297 N 
ATOM      9  H   PHE A   9      24.870 -13.755  11.942  0.00  0.00    +0.150 HD
ATOM     10  O   ASN A   8      24.828 -16.528  10.404  0.00  0.00    -0.273 OA
BRANCH   8  11
ATOM     11  CA  PHE A   9      24.529 -13.929   9.745  0.00  0.00    +0.153 C 
BRANCH  11  12
ATOM     12  C   PHE A   9      25.604 -14.438   8.797  0.00  0.00    +0.244 C 
ATOM     13  O   PHE A   9      26.767 -14.368   9.111  0.00  0.00    -0.273 OA
ATOM     14  N   PRO A  10      25.230 -14.982   7.636  0.00  0.00    -0.272 N 
ATOM     15  CD  PRO A  10      23.842 -15.203   7.181  0.00  0.00    +0.094 C 
ATOM     16  CG  PRO A  10      23.991 -16.019   5.876  0.00  0.00    +0.024 C 
ATOM     17  CB  PRO A  10      25.277 -16.807   6.079  0.00  0.00    +0.031 C 
ATOM     18  CA  PRO A  10      26.202 -15.790   6.816  0.00  0.00    +0.152 C 
BRANCH  18  19
ATOM     19  C   PRO A  10      27.010 -14.980   5.810  0.00  0.00    +0.241 C 
ATOM     20  N   LYS A  11      26.707 -13.683   5.622  0.00  0.00    -0.297 N 
ATOM     21  H   LYS A  11      26.066 -13.220   6.297  0.00  0.00    +0.150 HD
ATOM     22  O   PRO A  10      27.873 -15.540   5.174  0.00  0.00    -0.273 OA
BRANCH  20  23
ATOM     23  CA  LYS A  11      27.248 -12.883   4.493  0.00  0.00    +0.149 C 
BRANCH  23  24
ATOM     24  C   LYS A  11      27.880 -11.605   5.066  0.00  0.00    +0.241 C 
ATOM     25  O   LYS A  11      27.943 -11.423   6.327  0.00  0.00    -0.273 OA
ATOM     26  N   SER A  12      28.424 -10.765   4.194  0.00  0.00    -0.295 N 
ATOM     27  H   SER A  12      28.297 -10.945   3.178  0.00  0.00    +0.150 HD
BRANCH  26  28
ATOM     28  CA  SER A  12      29.185  -9.612   4.605  0.00  0.00    +0.178 C 
BRANCH  28  29
ATOM     29  C   SER A  12      28.488  -8.260   4.453  0.00  0.00    +0.243 C 
ATOM     30  O   SER A  12      29.051  -7.220   4.778  0.00  0.00    -0.273 OA
ATOM     31  N   CYS A  13      27.236  -8.333   4.011  0.00  0.00    -0.296 N 
ATOM     32  H   CYS A  13      26.869  -9.261   3.719  0.00  0.00    +0.150 HD
BRANCH  31  33
ATOM     33  CA  CYS A  13      26.370  -7.201   3.917  0.00  0.00    +0.160 C 
BRANCH  33  34
ATOM     34  C   CYS A  13      24.927  -7.735   3.801  0.00  0.00    +0.242 C 
ATOM     35  N   CYS A  14      23.934  -6.830   3.932  0.00  0.00    -0.297 N 
ATOM     36  H   CYS A  14      24.172  -5.844   4.161  0.00  0.00    +0.150 HD
ATOM     37  O   CYS A  13      24.722  -8.927   3.576  0.00  0.00    -0.273 OA
BRANCH  35  38
ATOM     38  CA  CYS A  14      22.536  -7.205   3.759  0.00  0.00    +0.149 C 
BRANCH  38  39
ATOM     39  C   CYS A  14      22.010  -6.571   2.430  0.00  0.00    +0.228 C 
ATOM     40  O   CYS A  14      22.217  -5.398   2.146  0.00  0.00    -0.286 OA
ENDBRANCH  38  39
BRANCH  38  41
ATOM     41  CB  CYS A  14      21.670  -6.741   4.889  0.00  0.00    +0.096 C 
ATOM     42  SG  CYS A  14      22.184  -7.225   6.560  0.00  0.00    -0.080 S 
ENDBRANCH  38  41
ENDBRANCH  35  38
ENDBRANCH  33  34
BRANCH  33  43
ATOM     43  CB  CYS A  13      26.708  -6.317   2.673  0.00  0.00    +0.098 C 
ATOM     44  SG  CYS A  13      26.418  -7.141   1.058  0.00  0.00    -0.080 S 
ENDBRANCH  33  43
ENDBRANCH  31  33
ENDBRANCH  28  29
BRANCH  28  45
ATOM     45  CB  SER A  12      30.486  -9.574   3.779  0.00  0.00    +0.166 C 
BRANCH  45  46
ATOM     46  OG  SER A  12      31.176 -10.784   3.952  0.00  0.00    -0.380 OA
ATOM     47  H   SER A  12      32.013 -10.764   3.423  0.00  0.00    +0.211 HD
ENDBRANCH  45  46
ENDBRANCH  28  45
ENDBRANCH  26  28
ENDBRANCH  23  24
BRANCH  23  48
ATOM     48  CB  LYS A  11      26.144 -12.613   3.462  0.00  0.00    +0.029 C 
BRANCH  48  49
ATOM     49  CG  LYS A  11      25.743 -13.846   2.629  0.00  0.00    +0.000 C 
BRANCH  49  50
ATOM     50  CD  LYS A  11      26.871 -14.332   1.714  0.00  0.00    -0.024 C 
BRANCH  50  51
ATOM     51  CE  LYS A  11      26.390 -15.371   0.699  0.00  0.00    -0.086 C 
BRANCH  51  52
ATOM     52  NZ  LYS A  11      27.439 -15.769  -0.305  0.00  0.00    +0.380 N 
ATOM     53  HZ1 LYS A  11      28.256 -16.177   0.192  0.00  0.00    -0.089 HD
ATOM     54  HZ2 LYS A  11      27.741 -14.930  -0.840  0.00  0.00    -0.089 HD
ATOM     55  HZ3 LYS A  11      27.042 -16.474  -0.958  0.00  0.00    -0.089 HD
ENDBRANCH  51  52
ENDBRANCH  50  51
ENDBRANCH  49  50
ENDBRANCH  48  49
ENDBRANCH  23  48
ENDBRANCH  20  23
ENDBRANCH  18  19
ENDBRANCH  11  12
BRANCH  11  56
ATOM     56  CB  PHE A   9      24.469 -12.424   9.747  0.00  0.00    +0.055 C 
BRANCH  56  57
ATOM     57  CG  PHE A   9      23.987 -11.837   8.469  0.00  0.00    -0.020 A 
ATOM     58  CD2 PHE A   9      22.607 -11.814   8.177  0.00  0.00    -0.004 A 
ATOM     59  CE2 PHE A   9      22.162 -11.309   6.995  0.00  0.00    -0.000 A 
ATOM     60  CZ  PHE A   9      23.038 -10.805   6.047  0.00  0.00    -0.000 A 
ATOM     61  CE1 PHE A   9      24.426 -10.852   6.286  0.00  0.00    -0.000 A 
ATOM     62  CD1 PHE A   9      24.875 -11.346   7.511  0.00  0.00    -0.004 A 
ENDBRANCH  56  57
ENDBRANCH  11  56
ENDBRANCH   8  11
ENDBRANCH   6   7
BRANCH   6  63
ATOM     63  CB  ASN A   8      24.846 -17.460  13.102  0.00  0.00    +0.114 C 
BRANCH  63  64
ATOM     64  CG  ASN A   8      25.615 -18.397  14.058  0.00  0.00    +0.222 C 
ATOM     65  OD1 ASN A   8      24.939 -19.165  14.694  0.00  0.00    -0.275 OA
ATOM     66  ND2 ASN A   8      26.974 -18.395  14.134  0.00  0.00    -0.329 N 
ATOM     67 HD21 ASN A   8      27.461 -19.071  14.756  0.00  0.00    +0.145 HD
ATOM     68 HD22 ASN A   8      27.525 -17.717  13.570  0.00  0.00    +0.145 HD
ENDBRANCH  63  64
ENDBRANCH   6  63
ENDBRANCH   4   6
ENDBRANCH   1   2
BRANCH   1  70
ATOM     69  C   TYR A   6      25.759 -12.161  13.886  0.00  0.00    +0.241 C 
ATOM     70  N   TYR A   7      25.749 -12.800  15.085  0.00  0.00    -0.297 N 
ATOM     71  H   TYR A   7      26.527 -12.646  15.758  0.00  0.00    +0.150 HD
ATOM     72  O   TYR A   6      24.829 -12.254  13.087  0.00  0.00    -0.273 OA
BRANCH  69  73
ATOM     73  CA  TYR A   6      27.037 -11.356  13.563  0.00  0.00    +0.153 C 
BRANCH  73  76
ATOM     74  C   ASN A   5      28.356 -13.213  12.785  0.00  0.00    +0.241 C 
ATOM     75  O   ASN A   5      28.361 -13.657  13.923  0.00  0.00    -0.273 OA
ATOM     76  N   TYR A   6      27.791 -12.037  12.529  0.00  0.00    -0.297 N 
ATOM     77  H   TYR A   6      27.890 -11.606  11.588  0.00  0.00    +0.150 HD
BRANCH  74  78
ATOM     78  CA  ASN A   5      28.868 -14.030  11.601  0.00  0.00    +0.158 C 
BRANCH  78  81
ATOM     79  C   LEU A   4      29.872 -12.260  10.197  0.00  0.00    +0.241 C 
ATOM     80  O   LEU A   4      30.679 -11.873  11.055  0.00  0.00    -0.273 OA
ATOM     81  N   ASN A   5      29.095 -13.323  10.316  0.00  0.00    -0.297 N 
ATOM     82  H   ASN A   5      28.618 -13.683   9.465  0.00  0.00    +0.150 HD
BRANCH  79  83
ATOM     83  CA  LEU A   4      29.735 -11.530   8.846  0.00  0.00    +0.149 C 
BRANCH  83  86
ATOM     84  C   PRO A   3      28.123  -9.896   9.496  0.00  0.00    +0.241 C 
ATOM     85  O   PRO A   3      27.354 -10.758   9.898  0.00  0.00    -0.273 OA
ATOM     86  N   LEU A   4      29.321 -10.191   9.040  0.00  0.00    -0.297 N 
ATOM     87  H   LEU A   4      29.981  -9.419   8.816  0.00  0.00    +0.150 HD
BRANCH  84  91
ATOM     88  C   SER A   2      29.581  -7.444  10.563  0.00  0.00    +0.246 C 
ATOM     89  O   SER A   2      29.419  -8.212  11.515  0.00  0.00    -0.273 OA
ATOM     90  N   PRO A   3      28.836  -7.540   9.422  0.00  0.00    -0.272 N 
ATOM     91  CA  PRO A   3      27.704  -8.445   9.412  0.00  0.00    +0.152 C 
ATOM     92  CB  PRO A   3      27.083  -8.150   8.029  0.00  0.00    +0.031 C 
ATOM     93  CG  PRO A   3      27.329  -6.637   7.876  0.00  0.00    +0.024 C 
ATOM     94  CD  PRO A   3      28.791  -6.658   8.226  0.00  0.00    +0.094 C 
BRANCH  88  95
ATOM     95  CA  SER A   2      30.718  -6.439  10.599  0.00  0.00    +0.178 C 
BRANCH  95  97
ATOM     96  C   PRO A   1      31.860  -7.234   8.542  0.00  0.00    +0.239 C 
ATOM     97  N   SER A   2      31.453  -6.233   9.331  0.00  0.00    -0.295 N 
ATOM     98  H   SER A   2      31.664  -5.258   9.038  0.00  0.00    +0.150 HD
ATOM     99  O   PRO A   1      31.567  -8.354   8.714  0.00  0.00    -0.274 OA
BRANCH  96 101
ATOM    100  N   PRO A   1      34.157  -7.136   7.683  0.00  0.00    -0.210 NA
ATOM    101  CA  PRO A   1      32.727  -6.892   7.355  0.00  0.00    +0.149 C 
ATOM    102  CB  PRO A   1      32.494  -7.742   6.121  0.00  0.00    +0.028 C 
ATOM    103  CG  PRO A   1      33.397  -8.909   6.332  0.00  0.00    +0.021 C 
ATOM    104  CD  PRO A   1      34.682  -8.286   6.944  0.00  0.00    +0.089 C 
ENDBRANCH  96 101
ENDBRANCH  95  97
BRANCH  95 105
ATOM    105  CB  SER A   2      30.218  -5.124  11.154  0.00  0.00    +0.166 C 
BRANCH 105 106
ATOM    106  OG  SER A   2      31.278  -4.219  11.281  0.00  0.00    -0.380 OA
ATOM    107  H   SER A   2      30.938  -3.363  11.645  0.00  0.00    +0.211 HD
ENDBRANCH 105 106
ENDBRANCH  95 105
ENDBRANCH  88  95
ENDBRANCH  84  91
ENDBRANCH  83  86
BRANCH  83 108
ATOM    108  CB  LEU A   4      31.066 -11.611   8.121  0.00  0.00    +0.029 C 
BRANCH 108 109
ATOM    109  CG  LEU A   4      31.578 -13.015   7.819  0.00  0.00    +0.002 C 
ATOM    110  CD2 LEU A   4      32.900 -12.978   7.176  0.00  0.00    +0.000 C 
ATOM    111  CD1 LEU A   4      30.620 -13.680   6.860  0.00  0.00    +0.000 C 
ENDBRANCH 108 109
ENDBRANCH  83 108
ENDBRANCH  79  83
ENDBRANCH  78  81
BRANCH  78 112
ATOM    112  CB  ASN A   5      30.148 -14.799  12.026  0.00  0.00    +0.114 C 
BRANCH 112 113
ATOM    113  CG  ASN A   5      29.827 -15.907  13.027  0.00  0.00    +0.222 C 
ATOM    114  ND2 ASN A   5      30.510 -15.948  14.179  0.00  0.00    -0.329 N 
ATOM    115 HD21 ASN A   5      30.294 -16.680  14.886  0.00  0.00    +0.145 HD
ATOM    116 HD22 ASN A   5      31.256 -15.248  14.366  0.00  0.00    +0.145 HD
ATOM    117  OD1 ASN A   5      28.951 -16.694  12.757  0.00  0.00    -0.275 OA
ENDBRANCH 112 113
ENDBRANCH  78 112
ENDBRANCH  74  78
ENDBRANCH  73  76
BRANCH  73 118
ATOM    118  CB  TYR A   6      26.706  -9.915  13.210  0.00  0.00    +0.055 C 
BRANCH 118 119
ATOM    119  CG  TYR A   6      26.133  -9.081  14.314  0.00  0.00    -0.020 A 
ATOM    120  CD2 TYR A   6      26.899  -8.729  15.409  0.00  0.00    -0.001 A 
ATOM    121  CE2 TYR A   6      26.391  -7.949  16.428  0.00  0.00    +0.036 A 
ATOM    122  CZ  TYR A   6      25.135  -7.504  16.342  0.00  0.00    +0.134 A 
ATOM    123  CE1 TYR A   6      24.346  -7.836  15.266  0.00  0.00    +0.036 A 
ATOM    124  CD1 TYR A   6      24.825  -8.633  14.271  0.00  0.00    -0.001 A 
BRANCH 122 125
ATOM    125  OH  TYR A   6      24.613  -6.688  17.316  0.00  0.00    -0.506 OA
ATOM    126  HH  TYR A   6      25.293  -6.539  18.020  0.00  0.00    +0.292 HD
ENDBRANCH 122 125
ENDBRANCH 118 119
ENDBRANCH  73 118
ENDBRANCH  69  73
ENDBRANCH   1  70
BRANCH   1 127
ATOM    127  CB  TYR A   7      23.346 -12.935  15.862  0.00  0.00    +0.055 C 
BRANCH 127 128
ATOM    128  CG  TYR A   7      23.605 -12.300  17.198  0.00  0.00    -0.020 A 
ATOM    129  CD2 TYR A   7      23.332 -12.954  18.420  0.00  0.00    -0.001 A 
ATOM    130  CE2 TYR A   7      23.676 -12.358  19.642  0.00  0.00    +0.036 A 
ATOM    131  CZ  TYR A   7      24.325 -11.127  19.654  0.00  0.00    +0.134 A 
ATOM    132  CE1 TYR A   7      24.593 -10.497  18.457  0.00  0.00    +0.036 A 
ATOM    133  CD1 TYR A   7      24.237 -11.085  17.262  0.00  0.00    -0.001 A 
BRANCH 131 134
ATOM    134  OH  TYR A   7      24.756 -10.463  20.805  0.00  0.00    -0.506 OA
ATOM    135  HH  TYR A   7      23.978 -10.279  21.389  0.00  0.00    +0.292 HD
ENDBRANCH 131 134
ENDBRANCH 127 128
ENDBRANCH   1 127
TORSDOF 50
REMARK  Name = ../refined-set-2016/4u1b/4u1b_pocket.pdb
REMARK  178 active torsions:
REMARK  status: ('A' for Active; 'I' for Inactive)
REMARK    1  A    between atoms: _1  and  _3
REMARK    2  A    between atoms: _3  and  _4
REMARK    3  A    between atoms: _3  and  _6
REMARK    4  A    between atoms: _6  and  _7
REMARK    5  A    between atoms: _12  and  _13
REMARK    6  A    between atoms: _15  and  _17
REMARK    7  A    between atoms: _17  and  _18
REMARK    8  A    between atoms: _17  and  _20
REMARK    9  A    between atoms: _20  and  _21
REMARK   10  A    between atoms: _21  and  _22
REMARK   11  A    between atoms: _26  and  _27
REMARK   12  A    between atoms: _32  and  _34
REMARK   13  A    between atoms: _34  and  _35
REMARK   14  A    between atoms: _34  and  _37
REMARK   15  A    between atoms: _37  and  _38
REMARK   16  A    between atoms: _41  and  _42
REMARK   17  A    between atoms: _47  and  _49
REMARK   18  A    between atoms: _49  and  _50
REMARK   19  A    between atoms: _49  and  _52
REMARK   20  A    between atoms: _52  and  _53
REMARK   21  A    between atoms: _56  and  _58
REMARK   22  A    between atoms: _58  and  _59
REMARK   23  A    between atoms: _58  and  _61
REMARK   24  A    between atoms: _61  and  _62
REMARK   25  A    between atoms: _67  and  _69
REMARK   26  A    between atoms: _69  and  _70
REMARK   27  A    between atoms: _69  and  _72
REMARK   28  A    between atoms: _72  and  _73
REMARK   29  A    between atoms: _78  and  _79
REMARK   30  A    between atoms: _81  and  _83
REMARK   31  A    between atoms: _83  and  _84
REMARK   32  A    between atoms: _83  and  _86
REMARK   33  A    between atoms: _86  and  _87
REMARK   34  A    between atoms: _92  and  _93
REMARK   35  A    between atoms: _95  and  _97
REMARK   36  A    between atoms: _97  and  _98
REMARK   37  A    between atoms: _97  and  _100
REMARK   38  A    between atoms: _100  and  _101
REMARK   39  A    between atoms: _106  and  _108
REMARK   40  A    between atoms: _108  and  _109
REMARK   41  A    between atoms: _108  and  _111
REMARK   42  A    between atoms: _111  and  _112
REMARK   43  A    between atoms: _119  and  _120
REMARK   44  A    between atoms: _125  and  _127
REMARK   45  A    between atoms: _127  and  _128
REMARK   46  A    between atoms: _127  and  _130
REMARK   47  A    between atoms: _130  and  _131
REMARK   48  A    between atoms: _131  and  _132
REMARK   49  A    between atoms: _132  and  _133
REMARK   50  A    between atoms: _133  and  _134
REMARK   51  A    between atoms: _138  and  _140
REMARK   52  A    between atoms: _140  and  _141
REMARK   53  A    between atoms: _140  and  _143
REMARK   54  A    between atoms: _143  and  _144
REMARK   55  A    between atoms: _146  and  _148
REMARK   56  A    between atoms: _148  and  _149
REMARK   57  A    between atoms: _148  and  _151
REMARK   58  A    between atoms: _153  and  _155
REMARK   59  A    between atoms: _155  and  _156
REMARK   60  A    between atoms: _155  and  _158
REMARK   61  A    between atoms: _160  and  _162
REMARK   62  A    between atoms: _162  and  _163
REMARK   63  A    between atoms: _162  and  _165
REMARK   64  A    between atoms: _167  and  _169
REMARK   65  A    between atoms: _169  and  _170
REMARK   66  A    between atoms: _169  and  _172
REMARK   67  A    between atoms: _172  and  _173
REMARK   68  A    between atoms: _178  and  _180
REMARK   69  A    between atoms: _180  and  _181
REMARK   70  A    between atoms: _183  and  _185
REMARK   71  A    between atoms: _185  and  _186
REMARK   72  A    between atoms: _185  and  _188
REMARK   73  A    between atoms: _188  and  _189
REMARK   74  A    between atoms: _192  and  _194
REMARK   75  A    between atoms: _194  and  _195
REMARK   76  A    between atoms: _194  and  _197
REMARK   77  A    between atoms: _197  and  _198
REMARK   78  A    between atoms: _203  and  _205
REMARK   79  A    between atoms: _205  and  _206
REMARK   80  A    between atoms: _205  and  _208
REMARK   81  A    between atoms: _211  and  _213
REMARK   82  A    between atoms: _213  and  _214
REMARK   83  A    between atoms: _213  and  _216
REMARK   84  A    between atoms: _216  and  _217
REMARK   85  A    between atoms: _220  and  _222
REMARK   86  A    between atoms: _222  and  _223
REMARK   87  A    between atoms: _222  and  _225
REMARK   88  A    between atoms: _225  and  _226
REMARK   89  A    between atoms: _229  and  _231
REMARK   90  A    between atoms: _231  and  _232
REMARK   91  A    between atoms: _231  and  _234
REMARK   92  A    between atoms: _234  and  _235
REMARK   93  A    between atoms: _238  and  _240
REMARK   94  A    between atoms: _240  and  _241
REMARK   95  A    between atoms: _240  and  _243
REMARK   96  A    between atoms: _243  and  _244
REMARK   97  A    between atoms: _247  and  _249
REMARK   98  A    between atoms: _249  and  _250
REMARK   99  A    between atoms: _252  and  _254
REMARK  100  A    between atoms: _254  and  _255
REMARK  101  A    between atoms: _254  and  _257
REMARK  102  A    between atoms: _261  and  _263
REMARK  103  A    between atoms: _263  and  _264
REMARK  104  A    between atoms: _263  and  _266
REMARK  105  A    between atoms: _266  and  _267
REMARK  106  A    between atoms: _270  and  _272
REMARK  107  A    between atoms: _272  and  _273
REMARK  108  A    between atoms: _272  and  _275
REMARK  109  A    between atoms: _275  and  _276
REMARK  110  A    between atoms: _281  and  _283
REMARK  111  A    between atoms: _283  and  _284
REMARK  112  A    between atoms: _283  and  _286
REMARK  113  A    between atoms: _286  and  _287
REMARK  114  A    between atoms: _292  and  _293
REMARK  115  A    between atoms: _295  and  _297
REMARK  116  A    between atoms: _297  and  _298
REMARK  117  A    between atoms: _297  and  _300
REMARK  118  A    between atoms: _302  and  _304
REMARK  119  A    between atoms: _304  and  _305
REMARK  120  A    between atoms: _307  and  _309
REMARK  121  A    between atoms: _309  and  _310
REMARK  122  A    between atoms: _309  and  _312
REMARK  123  A    between atoms: _312  and  _313
REMARK  124  A    between atoms: _317  and  CO_451
REMARK  125  A    between atoms: _318  and  _320
REMARK  126  A    between atoms: _320  and  _321
REMARK  127  A    between atoms: _323  and  _325
REMARK  128  A    between atoms: _325  and  _326
REMARK  129  A    between atoms: _325  and  _328
REMARK  130  A    between atoms: _328  and  _329
REMARK  131  A    between atoms: _332  and  _334
REMARK  132  A    between atoms: _334  and  _335
REMARK  133  A    between atoms: _334  and  _337
REMARK  134  A    between atoms: _337  and  _338
REMARK  135  A    between atoms: _344  and  _346
REMARK  136  A    between atoms: _346  and  _347
REMARK  137  A    between atoms: _346  and  _349
REMARK  138  A    between atoms: _349  and  _350
REMARK  139  A    between atoms: _355  and  _357
REMARK  140  A    between atoms: _357  and  _358
REMARK  141  A    between atoms: _357  and  _360
REMARK  142  A    between atoms: _360  and  _361
REMARK  143  A    between atoms: _364  and  _366
REMARK  144  A    between atoms: _366  and  _367
REMARK  145  A    between atoms: _366  and  _369
REMARK  146  A    between atoms: _369  and  _370
REMARK  147  A    between atoms: _373  and  _375
REMARK  148  A    between atoms: _375  and  _376
REMARK  149  A    between atoms: _375  and  _378
REMARK  150  A    between atoms: _378  and  _379
REMARK  151  A    between atoms: _379  and  _380
REMARK  152  A    between atoms: _383  and  _385
REMARK  153  A    between atoms: _385  and  _386
REMARK  154  A    between atoms: _385  and  _388
REMARK  155  A    between atoms: _388  and  _389
REMARK  156  A    between atoms: _389  and  _390
REMARK  157  A    between atoms: _392  and  _394
REMARK  158  A    between atoms: _394  and  _395
REMARK  159  A    between atoms: _394  and  _397
REMARK  160  A    between atoms: _397  and  _398
REMARK  161  A    between atoms: _408  and  _410
REMARK  162  A    between atoms: _410  and  _411
REMARK  163  A    between atoms: _410  and  _413
REMARK  164  A    between atoms: _413  and  _414
REMARK  165  A    between atoms: _414  and  _415
REMARK  166  A    between atoms: _420  and  _422
REMARK  167  A    between atoms: _422  and  _423
REMARK  168  A    between atoms: _422  and  _425
REMARK  169  A    between atoms: _425  and  _426
REMARK  170  A    between atoms: _432  and  _434
REMARK  171  A    between atoms: _434  and  _435
REMARK  172  A    between atoms: _434  and  _437
REMARK  173  A    between atoms: _437  and  _438
REMARK  174  A    between atoms: _438  and  _439
REMARK  175  A    between atoms: _442  and  _444
REMARK  176  A    between atoms: _444  and  _445
REMARK  177  A    between atoms: _444  and  _447
REMARK  178  A    between atoms: _447  and  _448
REMARK                            x       y       z     vdW  Elec       q    Type
REMARK                         _______ _______ _______ _____ _____    ______ ____
ROOT
ATOM      1  CA  HIS A   2      18.464  -8.006   6.651  0.00  0.00    +0.155 C 
ENDROOT
BRANCH   1   3
ATOM      2  C   CYS A   1      16.421  -6.719   6.222  0.00  0.00    +0.239 C 
ATOM      3  N   HIS A   2      17.758  -6.793   6.305  0.00  0.00    -0.297 N 
ATOM      4  H   HIS A   2      18.314  -5.936   6.111  0.00  0.00    +0.150 HD
ATOM      5  O   CYS A   1      15.683  -7.687   6.292  0.00  0.00    -0.274 OA
BRANCH   2   6
ATOM      6  CA  CYS A   1      15.873  -5.338   5.956  0.00  0.00    +0.156 C 
BRANCH   6   7
ATOM      7  N   CYS A   1      14.462  -5.432   5.575  0.00  0.00    -0.237 NA
ATOM      8  H   CYS A   1      13.946  -6.322   5.725  0.00  0.00    +0.142 HD
ENDBRANCH   6   7
BRANCH   6   9
ATOM      9  CB  CYS A   1      16.013  -4.414   7.164  0.00  0.00    +0.095 C 
ATOM     10  SG  CYS A   1      15.304  -5.115   8.694  0.00  0.00    -0.080 S 
ENDBRANCH   6   9
ENDBRANCH   2   6
ENDBRANCH   1   3
BRANCH   1  11
ATOM     11  C   HIS A   2      18.383  -9.121   5.668  0.00  0.00    +0.241 C 
ATOM     12  O   HIS A   2      18.486 -10.289   6.010  0.00  0.00    -0.273 OA
ATOM     13  N   GLY A   3      18.155  -8.796   4.411  0.00  0.00    -0.295 N 
ATOM     14  H   GLY A   3      17.958  -7.810   4.146  0.00  0.00    +0.150 HD
BRANCH  13  15
ATOM     15  CA  GLY A   3      18.185  -9.849   3.396  0.00  0.00    +0.176 C 
BRANCH  15  16
ATOM     16  C   GLY A   3      19.542 -10.437   3.141  0.00  0.00    +0.243 C 
ATOM     17  O   GLY A   3      20.581  -9.745   3.318  0.00  0.00    -0.273 OA
ATOM     18  N   ILE A   4      19.571 -11.726   2.857  0.00  0.00    -0.298 N 
ATOM     19  H   ILE A   4      18.677 -12.242   2.735  0.00  0.00    +0.150 HD
BRANCH  18  20
ATOM     20  CA  ILE A   4      20.849 -12.446   2.710  0.00  0.00    +0.137 C 
BRANCH  20  21
ATOM     21  CB  ILE A   4      20.713 -13.872   3.295  0.00  0.00    +0.026 C 
ATOM     22  CG2 ILE A   4      21.984 -14.705   3.095  0.00  0.00    +0.002 C 
BRANCH  21  23
ATOM     23  CG1 ILE A   4      20.397 -13.759   4.777  0.00  0.00    +0.002 C 
ATOM     24  CD1 ILE A   4      20.009 -15.077   5.464  0.00  0.00    +0.000 C 
ENDBRANCH  21  23
ENDBRANCH  20  21
BRANCH  20  25
ATOM     25  C   ILE A   4      21.206 -12.535   1.250  0.00  0.00    +0.227 C 
ATOM     26  O   ILE A   4      20.420 -13.044   0.470  0.00  0.00    -0.286 OA
ENDBRANCH  20  25
ENDBRANCH  18  20
ENDBRANCH  15  16
ENDBRANCH  13  15
ENDBRANCH   1  11
BRANCH   1  27
ATOM     27  CB  HIS A   2      18.026  -8.458   8.032  0.00  0.00    +0.076 C 
BRANCH  27  28
ATOM     28  CG  HIS A   2      18.181  -7.388   9.044  0.00  0.00    +0.082 A 
ATOM     29  ND1 HIS A   2      17.692  -7.509  10.322  0.00  0.00    -0.227 NA
ATOM     30  CE1 HIS A   2      18.010  -6.427  11.010  0.00  0.00    +0.199 A 
ATOM     31  NE2 HIS A   2      18.739  -5.631  10.243  0.00  0.00    -0.221 NA
ATOM     32  CD2 HIS A   2      18.861  -6.204   9.005  0.00  0.00    +0.115 A 
ENDBRANCH  27  28
ENDBRANCH   1  27
TORSDOF 13
REMARK  Name = ../refined-set-2016/4u1b/4u1b_pocket.pdb
REMARK  178 active torsions:
REMARK  status: ('A' for Active; 'I' for Inactive)
REMARK    1  A    between atoms: _1  and  _3
REMARK    2  A    between atoms: _3  and  _4
REMARK    3  A    between atoms: _3  and  _6
REMARK    4  A    between atoms: _6  and  _7
REMARK    5  A    between atoms: _12  and  _13
REMARK    6  A    between atoms: _15  and  _17
REMARK    7  A    between atoms: _17  and  _18
REMARK    8  A    between atoms: _17  and  _20
REMARK    9  A    between atoms: _20  and  _21
REMARK   10  A    between atoms: _21  and  _22
REMARK   11  A    between atoms: _26  and  _27
REMARK   12  A    between atoms: _32  and  _34
REMARK   13  A    between atoms: _34  and  _35
REMARK   14  A    between atoms: _34  and  _37
REMARK   15  A    between atoms: _37  and  _38
REMARK   16  A    between atoms: _41  and  _42
REMARK   17  A    between atoms: _47  and  _49
REMARK   18  A    between atoms: _49  and  _50
REMARK   19  A    between atoms: _49  and  _52
REMARK   20  A    between atoms: _52  and  _53
REMARK   21  A    between atoms: _56  and  _58
REMARK   22  A    between atoms: _58  and  _59
REMARK   23  A    between atoms: _58  and  _61
REMARK   24  A    between atoms: _61  and  _62
REMARK   25  A    between atoms: _67  and  _69
REMARK   26  A    between atoms: _69  and  _70
REMARK   27  A    between atoms: _69  and  _72
REMARK   28  A    between atoms: _72  and  _73
REMARK   29  A    between atoms: _78  and  _79
REMARK   30  A    between atoms: _81  and  _83
REMARK   31  A    between atoms: _83  and  _84
REMARK   32  A    between atoms: _83  and  _86
REMARK   33  A    between atoms: _86  and  _87
REMARK   34  A    between atoms: _92  and  _93
REMARK   35  A    between atoms: _95  and  _97
REMARK   36  A    between atoms: _97  and  _98
REMARK   37  A    between atoms: _97  and  _100
REMARK   38  A    between atoms: _100  and  _101
REMARK   39  A    between atoms: _106  and  _108
REMARK   40  A    between atoms: _108  and  _109
REMARK   41  A    between atoms: _108  and  _111
REMARK   42  A    between atoms: _111  and  _112
REMARK   43  A    between atoms: _119  and  _120
REMARK   44  A    between atoms: _125  and  _127
REMARK   45  A    between atoms: _127  and  _128
REMARK   46  A    between atoms: _127  and  _130
REMARK   47  A    between atoms: _130  and  _131
REMARK   48  A    between atoms: _131  and  _132
REMARK   49  A    between atoms: _132  and  _133
REMARK   50  A    between atoms: _133  and  _134
REMARK   51  A    between atoms: _138  and  _140
REMARK   52  A    between atoms: _140  and  _141
REMARK   53  A    between atoms: _140  and  _143
REMARK   54  A    between atoms: _143  and  _144
REMARK   55  A    between atoms: _146  and  _148
REMARK   56  A    between atoms: _148  and  _149
REMARK   57  A    between atoms: _148  and  _151
REMARK   58  A    between atoms: _153  and  _155
REMARK   59  A    between atoms: _155  and  _156
REMARK   60  A    between atoms: _155  and  _158
REMARK   61  A    between atoms: _160  and  _162
REMARK   62  A    between atoms: _162  and  _163
REMARK   63  A    between atoms: _162  and  _165
REMARK   64  A    between atoms: _167  and  _169
REMARK   65  A    between atoms: _169  and  _170
REMARK   66  A    between atoms: _169  and  _172
REMARK   67  A    between atoms: _172  and  _173
REMARK   68  A    between atoms: _178  and  _180
REMARK   69  A    between atoms: _180  and  _181
REMARK   70  A    between atoms: _183  and  _185
REMARK   71  A    between atoms: _185  and  _186
REMARK   72  A    between atoms: _185  and  _188
REMARK   73  A    between atoms: _188  and  _189
REMARK   74  A    between atoms: _192  and  _194
REMARK   75  A    between atoms: _194  and  _195
REMARK   76  A    between atoms: _194  and  _197
REMARK   77  A    between atoms: _197  and  _198
REMARK   78  A    between atoms: _203  and  _205
REMARK   79  A    between atoms: _205  and  _206
REMARK   80  A    between atoms: _205  and  _208
REMARK   81  A    between atoms: _211  and  _213
REMARK   82  A    between atoms: _213  and  _214
REMARK   83  A    between atoms: _213  and  _216
REMARK   84  A    between atoms: _216  and  _217
REMARK   85  A    between atoms: _220  and  _222
REMARK   86  A    between atoms: _222  and  _223
REMARK   87  A    between atoms: _222  and  _225
REMARK   88  A    between atoms: _225  and  _226
REMARK   89  A    between atoms: _229  and  _231
REMARK   90  A    between atoms: _231  and  _232
REMARK   91  A    between atoms: _231  and  _234
REMARK   92  A    between atoms: _234  and  _235
REMARK   93  A    between atoms: _238  and  _240
REMARK   94  A    between atoms: _240  and  _241
REMARK   95  A    between atoms: _240  and  _243
REMARK   96  A    between atoms: _243  and  _244
REMARK   97  A    between atoms: _247  and  _249
REMARK   98  A    between atoms: _249  and  _250
REMARK   99  A    between atoms: _252  and  _254
REMARK  100  A    between atoms: _254  and  _255
REMARK  101  A    between atoms: _254  and  _257
REMARK  102  A    between atoms: _261  and  _263
REMARK  103  A    between atoms: _263  and  _264
REMARK  104  A    between atoms: _263  and  _266
REMARK  105  A    between atoms: _266  and  _267
REMARK  106  A    between atoms: _270  and  _272
REMARK  107  A    between atoms: _272  and  _273
REMARK  108  A    between atoms: _272  and  _275
REMARK  109  A    between atoms: _275  and  _276
REMARK  110  A    between atoms: _281  and  _283
REMARK  111  A    between atoms: _283  and  _284
REMARK  112  A    between atoms: _283  and  _286
REMARK  113  A    between atoms: _286  and  _287
REMARK  114  A    between atoms: _292  and  _293
REMARK  115  A    between atoms: _295  and  _297
REMARK  116  A    between atoms: _297  and  _298
REMARK  117  A    between atoms: _297  and  _300
REMARK  118  A    between atoms: _302  and  _304
REMARK  119  A    between atoms: _304  and  _305
REMARK  120  A    between atoms: _307  and  _309
REMARK  121  A    between atoms: _309  and  _310
REMARK  122  A    between atoms: _309  and  _312
REMARK  123  A    between atoms: _312  and  _313
REMARK  124  A    between atoms: _317  and  CO_451
REMARK  125  A    between atoms: _318  and  _320
REMARK  126  A    between atoms: _320  and  _321
REMARK  127  A    between atoms: _323  and  _325
REMARK  128  A    between atoms: _325  and  _326
REMARK  129  A    between atoms: _325  and  _328
REMARK  130  A    between atoms: _328  and  _329
REMARK  131  A    between atoms: _332  and  _334
REMARK  132  A    between atoms: _334  and  _335
REMARK  133  A    between atoms: _334  and  _337
REMARK  134  A    between atoms: _337  and  _338
REMARK  135  A    between atoms: _344  and  _346
REMARK  136  A    between atoms: _346  and  _347
REMARK  137  A    between atoms: _346  and  _349
REMARK  138  A    between atoms: _349  and  _350
REMARK  139  A    between atoms: _355  and  _357
REMARK  140  A    between atoms: _357  and  _358
REMARK  141  A    between atoms: _357  and  _360
REMARK  142  A    between atoms: _360  and  _361
REMARK  143  A    between atoms: _364  and  _366
REMARK  144  A    between atoms: _366  and  _367
REMARK  145  A    between atoms: _366  and  _369
REMARK  146  A    between atoms: _369  and  _370
REMARK  147  A    between atoms: _373  and  _375
REMARK  148  A    between atoms: _375  and  _376
REMARK  149  A    between atoms: _375  and  _378
REMARK  150  A    between atoms: _378  and  _379
REMARK  151  A    between atoms: _379  and  _380
REMARK  152  A    between atoms: _383  and  _385
REMARK  153  A    between atoms: _385  and  _386
REMARK  154  A    between atoms: _385  and  _388
REMARK  155  A    between atoms: _388  and  _389
REMARK  156  A    between atoms: _389  and  _390
REMARK  157  A    between atoms: _392  and  _394
REMARK  158  A    between atoms: _394  and  _395
REMARK  159  A    between atoms: _394  and  _397
REMARK  160  A    between atoms: _397  and  _398
REMARK  161  A    between atoms: _408  and  _410
REMARK  162  A    between atoms: _410  and  _411
REMARK  163  A    between atoms: _410  and  _413
REMARK  164  A    between atoms: _413  and  _414
REMARK  165  A    between atoms: _414  and  _415
REMARK  166  A    between atoms: _420  and  _422
REMARK  167  A    between atoms: _422  and  _423
REMARK  168  A    between atoms: _422  and  _425
REMARK  169  A    between atoms: _425  and  _426
REMARK  170  A    between atoms: _432  and  _434
REMARK  171  A    between atoms: _434  and  _435
REMARK  172  A    between atoms: _434  and  _437
REMARK  173  A    between atoms: _437  and  _438
REMARK  174  A    between atoms: _438  and  _439
REMARK  175  A    between atoms: _442  and  _444
REMARK  176  A    between atoms: _444  and  _445
REMARK  177  A    between atoms: _444  and  _447
REMARK  178  A    between atoms: _447  and  _448
REMARK                            x       y       z     vdW  Elec       q    Type
REMARK                         _______ _______ _______ _____ _____    ______ ____
ROOT
ATOM      1  C   UNK A   3      22.460  -2.006   6.425  0.00  0.00    +0.000 C 
ATOM      2  O   UNK A   3      21.521  -1.936   7.161  0.00  0.00    +0.000 OA
ATOM      3 CO   UNK A   3      22.913  -0.978   8.749  0.00  0.00    +0.000 Co
ATOM      4  O   UNK A   3      24.680  -0.205   9.228  0.00  0.00    +0.000 OA
ATOM      5  C   UNK A   3      24.926   0.235  10.375  0.00  0.00    +0.000 C 
ATOM      6  O   UNK A   3      24.207  -0.093  11.342  0.00  0.00    +0.000 OA
ATOM      7 CO   UNK A   4      22.192   0.039  11.619  0.00  0.00    +0.000 Co
ATOM      8  O   UNK A   3      22.214   1.731  10.499  0.00  0.00    +0.000 OA
ATOM      9  C   UNK A   3      22.069   1.899   9.257  0.00  0.00    +0.000 C 
ATOM     10  C   UNK A   3      26.131   1.091  10.656  0.00  0.00    +0.000 C 
ATOM     11  O   UNK A   3      22.204   0.957   8.439  0.00  0.00    +0.000 OA
ATOM     12  O   UNK A   3      23.512  -1.611   6.770  0.00  0.00    +0.000 OA
ENDROOT
BRANCH   7  13
ATOM     13  N   UNK A   4      22.365   0.208  13.816  0.00  0.00    +0.000 N 
ATOM     14  C   UNK A   4      21.314   0.386  14.641  0.00  0.00    +0.000 A 
ATOM     15  C   UNK A   4      21.804   0.640  15.879  0.00  0.00    +0.000 A 
ATOM     16  N   UNK A   4      23.188   0.593  15.763  0.00  0.00    +0.000 NA
ATOM     17  C   UNK A   4      23.502   0.338  14.499  0.00  0.00    +0.000 A 
BRANCH  15  18
ATOM     18  C   UNK A   4      21.075   0.904  17.175  0.00  0.00    +0.000 C 
BRANCH  18  19
ATOM     19  C   UNK A   4      20.732   2.370  17.393  0.00  0.00    +0.000 C 
BRANCH  19  20
ATOM     20  N   UNK A   4      20.006   2.835  16.217  0.00  0.00    +0.000 N 
ATOM     21  C   UNK A   3      18.693   2.602  16.087  0.00  0.00    +0.000 C 
ATOM     22  O   UNK A   3      18.005   2.144  16.993  0.00  0.00    +0.000 OA
ATOM     23  H   UNK A   4      20.513   3.353  15.471  0.00  0.00    +0.000 HD
BRANCH  21  24
ATOM     24  C   UNK A   3      18.051   2.903  14.729  0.00  0.00    +0.000 C 
BRANCH  24  25
ATOM     25  N   UNK A   3      16.663   2.375  14.705  0.00  0.00    +0.000 N 
ATOM     26  C   UNK A   2      16.466   1.061  14.779  0.00  0.00    +0.000 C 
ATOM     27  O   UNK A   2      17.369   0.201  14.611  0.00  0.00    +0.000 OA
ATOM     28  H   UNK A   3      15.854   3.025  14.631  0.00  0.00    +0.000 HD
BRANCH  26  29
ATOM     29  C   UNK A   2      15.045   0.661  15.133  0.00  0.00    +0.000 C 
BRANCH  29  30
ATOM     30  N   UNK A   2      14.717  -0.658  14.674  0.00  0.00    +0.000 N 
ATOM     31  H   UNK A   2      15.377  -1.430  14.898  0.00  0.00    +0.000 HD
ATOM     32  C   GLY A   1      13.623  -0.956  13.980  0.00  0.00    +0.000 C 
ATOM     33  O   GLY A   1      12.909  -0.144  13.454  0.00  0.00    +0.000 OA
BRANCH  32  34
ATOM     34  CA  GLY A   1      13.372  -2.442  13.752  0.00  0.00    +0.000 C 
BRANCH  34  35
ATOM     35  N   GLY A   1      11.967  -2.702  13.834  0.00  0.00    +0.000 NA
ATOM     36  H   GLY A   1      11.305  -2.215  13.198  0.00  0.00    +0.000 HD
ENDBRANCH  34  35
BRANCH  34  37
ATOM     37  CB  GLY A   1      13.924  -2.917  12.391  0.00  0.00    +0.000 C 
BRANCH  37  38
ATOM     38  CG  GLY A   1      13.786  -4.424  12.222  0.00  0.00    +0.000 A 
ATOM     39  CD2 GLY A   1      14.764  -5.272  12.678  0.00  0.00    +0.000 A 
ATOM     40  CE2 GLY A   1      14.642  -6.622  12.526  0.00  0.00    +0.000 A 
ATOM     41  CZ  GLY A   1      13.521  -7.133  11.913  0.00  0.00    +0.000 A 
ATOM     42  CE1 GLY A   1      12.538  -6.343  11.443  0.00  0.00    +0.000 A 
ATOM     43  CD1 GLY A   1      12.666  -4.971  11.586  0.00  0.00    +0.000 A 
BRANCH  41  44
ATOM     44  OH  GLY A   1      13.370  -8.463  11.761  0.00  0.00    +0.000 OA
ATOM     45  HH  GLY A   1      12.549  -8.756  12.229  0.00  0.00    +0.000 HD
ENDBRANCH  41  44
ENDBRANCH  37  38
ENDBRANCH  34  37
ENDBRANCH  32  34
ENDBRANCH  29  30
BRANCH  29  46
ATOM     46  C   UNK A   2      14.885   0.709  16.662  0.00  0.00    +0.000 C 
ATOM     47  S   UNK A   2      13.141   0.378  17.089  0.00  0.00    +0.000 S 
ENDBRANCH  29  46
ENDBRANCH  26  29
ENDBRANCH  24  25
ENDBRANCH  21  24
ENDBRANCH  19  20
BRANCH  19  48
ATOM     48  C   UNK A   4      22.071   3.047  17.610  0.00  0.00    +0.000 C 
ATOM     49  N   THR A   5      22.535   3.080  18.833  0.00  0.00    +0.000 N 
ATOM     50  H   THR A   5      21.908   2.852  19.631  0.00  0.00    +0.000 HD
ATOM     51  O   UNK A   4      22.734   3.519  16.690  0.00  0.00    +0.000 OA
BRANCH  49  52
ATOM     52  CA  THR A   5      23.890   3.425  19.076  0.00  0.00    +0.000 C 
BRANCH  52  53
ATOM     53  C   THR A   5      24.842   2.479  18.414  0.00  0.00    +0.000 C 
ATOM     54  O   THR A   5      24.513   1.292  18.164  0.00  0.00    +0.000 OA
ATOM     55  N   LEU A   6      25.984   3.041  18.048  0.00  0.00    +0.000 N 
ATOM     56  H   LEU A   6      26.116   4.053  18.245  0.00  0.00    +0.000 HD
BRANCH  55  57
ATOM     57  CA  LEU A   6      27.029   2.350  17.408  0.00  0.00    +0.000 C 
BRANCH  57  58
ATOM     58  C   LEU A   6      28.352   3.019  17.689  0.00  0.00    +0.000 C 
ATOM     59  O   LEU A   6      28.443   4.219  17.658  0.00  0.00    +0.000 OA
ENDBRANCH  57  58
BRANCH  57  60
ATOM     60  CB  LEU A   6      26.721   2.192  15.872  0.00  0.00    +0.000 C 
ATOM     61  CG2 LEU A   6      26.531   3.567  15.248  0.00  0.00    +0.000 C 
BRANCH  60  62
ATOM     62  CG1 LEU A   6      27.828   1.366  15.280  0.00  0.00    +0.000 C 
ATOM     63  CD1 LEU A   6      27.598   1.023  13.744  0.00  0.00    +0.000 C 
ENDBRANCH  60  62
ENDBRANCH  57  60
ENDBRANCH  55  57
ENDBRANCH  52  53
ENDBRANCH  49  52
ENDBRANCH  19  48
ENDBRANCH  18  19
ENDBRANCH  15  18
ENDBRANCH   7  13
BRANCH   1  64
ATOM     64  C   UNK A   3      22.320  -2.663   5.034  0.00  0.00    +0.000 C 
BRANCH  64  65
ATOM     65  C   UNK A   3      23.395  -2.210   4.079  0.00  0.00    +0.000 C 
BRANCH  65  66
ATOM     66  C   UNK A   3      24.818  -2.753   4.451  0.00  0.00    +0.000 C 
ATOM     67  N   UNK A   4      25.685  -1.810   4.678  0.00  0.00    +0.000 N 
ATOM     68  H   UNK A   4      25.325  -0.836   4.740  0.00  0.00    +0.000 HD
ATOM     69  O   UNK A   3      25.095  -3.951   4.390  0.00  0.00    +0.000 OA
BRANCH  67  70
ATOM     70  C   UNK A   4      27.100  -2.002   4.850  0.00  0.00    +0.000 C 
BRANCH  70  71
ATOM     71  C   UNK A   4      27.419  -1.678   6.278  0.00  0.00    +0.000 C 
ATOM     72  N   THR A   5      28.218  -2.530   6.942  0.00  0.00    +0.000 N 
ATOM     73  H   THR A   5      28.364  -3.499   6.594  0.00  0.00    +0.000 HD
ATOM     74  O   UNK A   4      26.996  -0.637   6.750  0.00  0.00    +0.000 OA
BRANCH  72  75
ATOM     75  CA  THR A   5      28.882  -2.068   8.168  0.00  0.00    +0.000 C 
BRANCH  75  76
ATOM     76  C   THR A   5      30.314  -2.633   8.165  0.00  0.00    +0.000 C 
ATOM     77  N   LEU A   6      31.277  -1.778   8.537  0.00  0.00    +0.000 N 
ATOM     78  H   LEU A   6      31.019  -0.805   8.797  0.00  0.00    +0.000 HD
ATOM     79  O   THR A   5      30.544  -3.780   7.797  0.00  0.00    +0.000 OA
BRANCH  77  80
ATOM     80  CA  LEU A   6      32.665  -2.177   8.585  0.00  0.00    +0.000 C 
BRANCH  80  81
ATOM     81  C   LEU A   6      33.130  -2.026  10.014  0.00  0.00    +0.000 C 
ATOM     82  O   LEU A   6      32.599  -1.208  10.704  0.00  0.00    +0.000 OA
ENDBRANCH  80  81
BRANCH  80  83
ATOM     83  CB  LEU A   6      33.581  -1.294   7.734  0.00  0.00    +0.000 C 
BRANCH  83  84
ATOM     84  CG  LEU A   6      33.682  -1.586   6.256  0.00  0.00    +0.000 C 
ATOM     85  CD2 LEU A   6      32.337  -1.685   5.621  0.00  0.00    +0.000 C 
ATOM     86  CD1 LEU A   6      34.532  -0.583   5.550  0.00  0.00    +0.000 C 
ENDBRANCH  83  84
ENDBRANCH  80  83
ENDBRANCH  77  80
ENDBRANCH  75  76
BRANCH  75  87
ATOM     87  CB  THR A   5      28.130  -2.646   9.415  0.00  0.00    +0.000 C 
ATOM     88  CG2 THR A   5      28.709  -2.047  10.604  0.00  0.00    +0.000 C 
BRANCH  87  89
ATOM     89  OG1 THR A   5      26.765  -2.218   9.385  0.00  0.00    +0.000 OA
ATOM     90  HG1 THR A   5      26.730  -1.229   9.406  0.00  0.00    +0.000 HD
ENDBRANCH  87  89
ENDBRANCH  75  87
ENDBRANCH  72  75
ENDBRANCH  70  71
BRANCH  70  91
ATOM     91  C   UNK A   4      27.895  -1.034   3.946  0.00  0.00    +0.000 C 
ATOM     92  C   UNK A   4      29.413  -1.015   4.259  0.00  0.00    +0.000 C 
BRANCH  91  93
ATOM     93  C   UNK A   4      27.662  -1.356   2.444  0.00  0.00    +0.000 C 
ATOM     94  C   UNK A   4      27.892  -2.786   2.079  0.00  0.00    +0.000 C 
ENDBRANCH  91  93
ENDBRANCH  70  91
ENDBRANCH  67  70
ENDBRANCH  65  66
BRANCH  65  96
ATOM     95  C   UNK A   2      22.890  -1.867   1.685  0.00  0.00    +0.000 C 
ATOM     96  N   UNK A   3      23.070  -2.686   2.719  0.00  0.00    +0.000 N 
ATOM     97  H   UNK A   3      22.977  -3.710   2.562  0.00  0.00    +0.000 HD
ATOM     98  O   UNK A   2      23.005  -0.682   1.727  0.00  0.00    +0.000 OA
BRANCH  95  99
ATOM     99  C   UNK A   2      22.460  -2.574   0.403  0.00  0.00    +0.000 C 
BRANCH  99 102
ATOM    100  C   GLY A   1      20.132  -2.610  -0.138  0.00  0.00    +0.000 C 
ATOM    101  O   GLY A   1      20.096  -3.803   0.006  0.00  0.00    +0.000 OA
ATOM    102  N   UNK A   2      21.259  -1.947  -0.095  0.00  0.00    +0.000 N 
ATOM    103  H   UNK A   2      21.290  -0.960  -0.422  0.00  0.00    +0.000 HD
BRANCH 100 104
ATOM    104  CA  GLY A   1      18.873  -1.788  -0.453  0.00  0.00    +0.000 C 
BRANCH 104 105
ATOM    105  N   GLY A   1      18.103  -2.455  -1.452  0.00  0.00    +0.000 NA
ATOM    106  H   GLY A   1      17.493  -3.247  -1.166  0.00  0.00    +0.000 HD
ENDBRANCH 104 105
BRANCH 104 107
ATOM    107  CB  GLY A   1      18.027  -1.596   0.777  0.00  0.00    +0.000 C 
BRANCH 107 108
ATOM    108  CG  GLY A   1      18.774  -0.945   1.906  0.00  0.00    +0.000 C 
ATOM    109  OD1 GLY A   1      19.653  -1.575   2.553  0.00  0.00    +0.000 OA
ATOM    110  ND2 GLY A   1      18.432   0.293   2.193  0.00  0.00    +0.000 N 
ATOM    111 HD21 GLY A   1      18.893   0.790   2.981  0.00  0.00    +0.000 HD
ATOM    112 HD22 GLY A   1      17.701   0.774   1.631  0.00  0.00    +0.000 HD
ENDBRANCH 107 108
ENDBRANCH 104 107
ENDBRANCH 100 104
ENDBRANCH  99 102
BRANCH  99 113
ATOM    113  C   UNK A   2      23.574  -2.466  -0.606  0.00  0.00    +0.000 C 
ATOM    114  C   UNK A   2      24.801  -3.159  -0.090  0.00  0.00    +0.000 C 
ATOM    115  C   UNK A   2      23.100  -3.014  -1.972  0.00  0.00    +0.000 C 
ENDBRANCH  99 113
ENDBRANCH  95  99
ENDBRANCH  65  96
ENDBRANCH  64  65
ENDBRANCH   1  64
BRANCH   9 116
ATOM    116  C   UNK A   3      21.760   3.257   8.780  0.00  0.00    +0.000 C 
BRANCH 116 117
ATOM    117  C   UNK A   3      20.918   3.349   7.490  0.00  0.00    +0.000 C 
BRANCH 117 118
ATOM    118  C   UNK A   3      20.612   4.756   7.039  0.00  0.00    +0.000 C 
BRANCH 118 119
ATOM    119  N   UNK A   3      20.028   4.736   5.696  0.00  0.00    +0.000 N 
ATOM    120  C   UNK A   2      18.694   4.721   5.574  0.00  0.00    +0.000 C 
ATOM    121  O   UNK A   2      17.928   4.763   6.498  0.00  0.00    +0.000 OA
ATOM    122  H   UNK A   3      20.637   4.733   4.853  0.00  0.00    +0.000 HD
BRANCH 120 123
ATOM    123  C   UNK A   2      18.142   4.631   4.158  0.00  0.00    +0.000 C 
BRANCH 123 124
ATOM    124  N   UNK A   2      16.846   3.980   4.230  0.00  0.00    +0.000 N 
ATOM    125  H   UNK A   2      16.181   4.282   4.970  0.00  0.00    +0.000 HD
ATOM    126  C   GLY A   1      16.470   3.020   3.399  0.00  0.00    +0.000 C 
ATOM    127  O   GLY A   1      17.029   2.847   2.329  0.00  0.00    +0.000 OA
BRANCH 126 128
ATOM    128  CA  GLY A   1      15.234   2.210   3.806  0.00  0.00    +0.000 C 
BRANCH 128 129
ATOM    129  N   GLY A   1      14.474   1.779   2.632  0.00  0.00    +0.000 NA
ATOM    130  H   GLY A   1      14.985   1.608   1.742  0.00  0.00    +0.000 HD
ENDBRANCH 128 129
BRANCH 128 131
ATOM    131  CB  GLY A   1      15.654   0.990   4.602  0.00  0.00    +0.000 C 
BRANCH 131 132
ATOM    132  CG  GLY A   1      16.433   1.306   5.897  0.00  0.00    +0.000 C 
BRANCH 132 133
ATOM    133  CD  GLY A   1      16.874   0.065   6.613  0.00  0.00    +0.000 C 
ATOM    134  NE2 GLY A   1      16.846   0.115   7.949  0.00  0.00    +0.000 N 
ATOM    135 HE21 GLY A   1      17.109  -0.723   8.506  0.00  0.00    +0.000 HD
ATOM    136 HE22 GLY A   1      16.562   0.992   8.431  0.00  0.00    +0.000 HD
ATOM    137  OE1 GLY A   1      17.212  -0.976   5.991  0.00  0.00    +0.000 OA
ENDBRANCH 132 133
ENDBRANCH 131 132
ENDBRANCH 128 131
ENDBRANCH 126 128
ENDBRANCH 123 124
BRANCH 123 138
ATOM    138  C   UNK A   2      18.011   6.028   3.629  0.00  0.00    +0.000 C 
BRANCH 138 139
ATOM    139  C   UNK A   2      17.784   6.060   2.124  0.00  0.00    +0.000 A 
ATOM    140  C   UNK A   2      16.495   6.026   1.597  0.00  0.00    +0.000 A 
ATOM    141  C   UNK A   2      16.304   6.018   0.213  0.00  0.00    +0.000 A 
ATOM    142  C   UNK A   2      17.343   6.044  -0.647  0.00  0.00    +0.000 A 
ATOM    143  C   UNK A   2      18.653   6.114  -0.178  0.00  0.00    +0.000 A 
ATOM    144  C   UNK A   2      18.862   6.127   1.264  0.00  0.00    +0.000 A 
ENDBRANCH 138 139
ENDBRANCH 123 138
ENDBRANCH 120 123
ENDBRANCH 118 119
BRANCH 118 145
ATOM    145  C   UNK A   3      21.897   5.584   6.970  0.00  0.00    +0.000 C 
ATOM    146  O   UNK A   3      22.644   5.459   6.023  0.00  0.00    +0.000 OA
ENDBRANCH 118 145
ENDBRANCH 117 118
ENDBRANCH 116 117
ENDBRANCH   9 116
BRANCH  10 147
ATOM    147  C   UNK A   3      26.911   1.537   9.428  0.00  0.00    +0.000 C 
BRANCH 147 148
ATOM    148  N   UNK A   3      28.123   2.217   9.983  0.00  0.00    +0.000 N 
ATOM    149  H   UNK A   3      28.011   3.154  10.421  0.00  0.00    +0.000 HD
ATOM    150  C   GLY A   1      29.336   1.676   9.941  0.00  0.00    +0.000 C 
ATOM    151  O   GLY A   1      29.628   0.717   9.238  0.00  0.00    +0.000 OA
BRANCH 150 152
ATOM    152  CA  GLY A   1      30.378   2.275  10.879  0.00  0.00    +0.000 C 
BRANCH 152 153
ATOM    153  N   GLY A   1      31.012   1.200  11.658  0.00  0.00    +0.000 NA
ATOM    154  H   GLY A   1      31.294   0.334  11.155  0.00  0.00    +0.000 HD
ENDBRANCH 152 153
ENDBRANCH 150 152
ENDBRANCH 147 148
BRANCH 147 155
ATOM    155  C   UNK A   3      26.118   2.505   8.555  0.00  0.00    +0.000 C 
ATOM    156  O   UNK A   3      25.888   3.622   8.941  0.00  0.00    +0.000 OA
ATOM    157  N   UNK A   3      25.838   2.120   7.291  0.00  0.00    +0.000 N 
ATOM    158  H   UNK A   3      26.238   1.227   6.939  0.00  0.00    +0.000 HD
BRANCH 157 159
ATOM    159  C   UNK A   3      24.991   2.916   6.398  0.00  0.00    +0.000 C 
BRANCH 159 160
ATOM    160  C   UNK A   3      24.312   2.020   5.377  0.00  0.00    +0.000 C 
ATOM    161  O   UNK A   3      24.740   0.871   5.132  0.00  0.00    +0.000 OA
ATOM    162  N   UNK A   4      23.216   2.520   4.823  0.00  0.00    +0.000 N 
ATOM    163  H   UNK A   4      22.826   3.420   5.169  0.00  0.00    +0.000 HD
BRANCH 162 164
ATOM    164  C   UNK A   4      22.561   1.820   3.741  0.00  0.00    +0.000 C 
BRANCH 164 165
ATOM    165  C   UNK A   4      21.857   2.833   2.831  0.00  0.00    +0.000 C 
ATOM    166  O   UNK A   4      21.567   4.032   3.187  0.00  0.00    +0.000 OA
ENDBRANCH 164 165
BRANCH 164 167
ATOM    167  C   UNK A   4      21.651   0.646   4.220  0.00  0.00    +0.000 C 
BRANCH 167 168
ATOM    168  C   UNK A   4      20.334   1.079   4.881  0.00  0.00    +0.000 C 
ATOM    169  N   UNK A   4      20.076   0.544   6.070  0.00  0.00    +0.000 N 
ATOM    170  H   UNK A   4      19.172   0.742   6.544  0.00  0.00    +0.000 HD
ATOM    171  H   UNK A   4      20.778  -0.072   6.526  0.00  0.00    +0.000 HD
ATOM    172  O   UNK A   4      19.515   1.814   4.320  0.00  0.00    +0.000 OA
ENDBRANCH 167 168
ENDBRANCH 164 167
ENDBRANCH 162 164
ENDBRANCH 159 160
BRANCH 159 173
ATOM    173  C   UNK A   3      25.817   3.974   5.676  0.00  0.00    +0.000 C 
BRANCH 173 174
ATOM    174  C   UNK A   3      26.714   3.495   4.538  0.00  0.00    +0.000 C 
ATOM    175  C   UNK A   3      28.016   2.877   5.058  0.00  0.00    +0.000 C 
ATOM    176  C   UNK A   3      27.012   4.602   3.555  0.00  0.00    +0.000 C 
ENDBRANCH 173 174
ENDBRANCH 159 173
ENDBRANCH 157 159
ENDBRANCH 147 155
ENDBRANCH  10 147
TORSDOF 71
REMARK  Name = ../refined-set-2016/4u1b/4u1b_pocket.pdb
REMARK  178 active torsions:
REMARK  status: ('A' for Active; 'I' for Inactive)
REMARK    1  A    between atoms: _1  and  _3
REMARK    2  A    between atoms: _3  and  _4
REMARK    3  A    between atoms: _3  and  _6
REMARK    4  A    between atoms: _6  and  _7
REMARK    5  A    between atoms: _12  and  _13
REMARK    6  A    between atoms: _15  and  _17
REMARK    7  A    between atoms: _17  and  _18
REMARK    8  A    between atoms: _17  and  _20
REMARK    9  A    between atoms: _20  and  _21
REMARK   10  A    between atoms: _21  and  _22
REMARK   11  A    between atoms: _26  and  _27
REMARK   12  A    between atoms: _32  and  _34
REMARK   13  A    between atoms: _34  and  _35
REMARK   14  A    between atoms: _34  and  _37
REMARK   15  A    between atoms: _37  and  _38
REMARK   16  A    between atoms: _41  and  _42
REMARK   17  A    between atoms: _47  and  _49
REMARK   18  A    between atoms: _49  and  _50
REMARK   19  A    between atoms: _49  and  _52
REMARK   20  A    between atoms: _52  and  _53
REMARK   21  A    between atoms: _56  and  _58
REMARK   22  A    between atoms: _58  and  _59
REMARK   23  A    between atoms: _58  and  _61
REMARK   24  A    between atoms: _61  and  _62
REMARK   25  A    between atoms: _67  and  _69
REMARK   26  A    between atoms: _69  and  _70
REMARK   27  A    between atoms: _69  and  _72
REMARK   28  A    between atoms: _72  and  _73
REMARK   29  A    between atoms: _78  and  _79
REMARK   30  A    between atoms: _81  and  _83
REMARK   31  A    between atoms: _83  and  _84
REMARK   32  A    between atoms: _83  and  _86
REMARK   33  A    between atoms: _86  and  _87
REMARK   34  A    between atoms: _92  and  _93
REMARK   35  A    between atoms: _95  and  _97
REMARK   36  A    between atoms: _97  and  _98
REMARK   37  A    between atoms: _97  and  _100
REMARK   38  A    between atoms: _100  and  _101
REMARK   39  A    between atoms: _106  and  _108
REMARK   40  A    between atoms: _108  and  _109
REMARK   41  A    between atoms: _108  and  _111
REMARK   42  A    between atoms: _111  and  _112
REMARK   43  A    between atoms: _119  and  _120
REMARK   44  A    between atoms: _125  and  _127
REMARK   45  A    between atoms: _127  and  _128
REMARK   46  A    between atoms: _127  and  _130
REMARK   47  A    between atoms: _130  and  _131
REMARK   48  A    between atoms: _131  and  _132
REMARK   49  A    between atoms: _132  and  _133
REMARK   50  A    between atoms: _133  and  _134
REMARK   51  A    between atoms: _138  and  _140
REMARK   52  A    between atoms: _140  and  _141
REMARK   53  A    between atoms: _140  and  _143
REMARK   54  A    between atoms: _143  and  _144
REMARK   55  A    between atoms: _146  and  _148
REMARK   56  A    between atoms: _148  and  _149
REMARK   57  A    between atoms: _148  and  _151
REMARK   58  A    between atoms: _153  and  _155
REMARK   59  A    between atoms: _155  and  _156
REMARK   60  A    between atoms: _155  and  _158
REMARK   61  A    between atoms: _160  and  _162
REMARK   62  A    between atoms: _162  and  _163
REMARK   63  A    between atoms: _162  and  _165
REMARK   64  A    between atoms: _167  and  _169
REMARK   65  A    between atoms: _169  and  _170
REMARK   66  A    between atoms: _169  and  _172
REMARK   67  A    between atoms: _172  and  _173
REMARK   68  A    between atoms: _178  and  _180
REMARK   69  A    between atoms: _180  and  _181
REMARK   70  A    between atoms: _183  and  _185
REMARK   71  A    between atoms: _185  and  _186
REMARK   72  A    between atoms: _185  and  _188
REMARK   73  A    between atoms: _188  and  _189
REMARK   74  A    between atoms: _192  and  _194
REMARK   75  A    between atoms: _194  and  _195
REMARK   76  A    between atoms: _194  and  _197
REMARK   77  A    between atoms: _197  and  _198
REMARK   78  A    between atoms: _203  and  _205
REMARK   79  A    between atoms: _205  and  _206
REMARK   80  A    between atoms: _205  and  _208
REMARK   81  A    between atoms: _211  and  _213
REMARK   82  A    between atoms: _213  and  _214
REMARK   83  A    between atoms: _213  and  _216
REMARK   84  A    between atoms: _216  and  _217
REMARK   85  A    between atoms: _220  and  _222
REMARK   86  A    between atoms: _222  and  _223
REMARK   87  A    between atoms: _222  and  _225
REMARK   88  A    between atoms: _225  and  _226
REMARK   89  A    between atoms: _229  and  _231
REMARK   90  A    between atoms: _231  and  _232
REMARK   91  A    between atoms: _231  and  _234
REMARK   92  A    between atoms: _234  and  _235
REMARK   93  A    between atoms: _238  and  _240
REMARK   94  A    between atoms: _240  and  _241
REMARK   95  A    between atoms: _240  and  _243
REMARK   96  A    between atoms: _243  and  _244
REMARK   97  A    between atoms: _247  and  _249
REMARK   98  A    between atoms: _249  and  _250
REMARK   99  A    between atoms: _252  and  _254
REMARK  100  A    between atoms: _254  and  _255
REMARK  101  A    between atoms: _254  and  _257
REMARK  102  A    between atoms: _261  and  _263
REMARK  103  A    between atoms: _263  and  _264
REMARK  104  A    between atoms: _263  and  _266
REMARK  105  A    between atoms: _266  and  _267
REMARK  106  A    between atoms: _270  and  _272
REMARK  107  A    between atoms: _272  and  _273
REMARK  108  A    between atoms: _272  and  _275
REMARK  109  A    between atoms: _275  and  _276
REMARK  110  A    between atoms: _281  and  _283
REMARK  111  A    between atoms: _283  and  _284
REMARK  112  A    between atoms: _283  and  _286
REMARK  113  A    between atoms: _286  and  _287
REMARK  114  A    between atoms: _292  and  _293
REMARK  115  A    between atoms: _295  and  _297
REMARK  116  A    between atoms: _297  and  _298
REMARK  117  A    between atoms: _297  and  _300
REMARK  118  A    between atoms: _302  and  _304
REMARK  119  A    between atoms: _304  and  _305
REMARK  120  A    between atoms: _307  and  _309
REMARK  121  A    between atoms: _309  and  _310
REMARK  122  A    between atoms: _309  and  _312
REMARK  123  A    between atoms: _312  and  _313
REMARK  124  A    between atoms: _317  and  CO_451
REMARK  125  A    between atoms: _318  and  _320
REMARK  126  A    between atoms: _320  and  _321
REMARK  127  A    between atoms: _323  and  _325
REMARK  128  A    between atoms: _325  and  _326
REMARK  129  A    between atoms: _325  and  _328
REMARK  130  A    between atoms: _328  and  _329
REMARK  131  A    between atoms: _332  and  _334
REMARK  132  A    between atoms: _334  and  _335
REMARK  133  A    between atoms: _334  and  _337
REMARK  134  A    between atoms: _337  and  _338
REMARK  135  A    between atoms: _344  and  _346
REMARK  136  A    between atoms: _346  and  _347
REMARK  137  A    between atoms: _346  and  _349
REMARK  138  A    between atoms: _349  and  _350
REMARK  139  A    between atoms: _355  and  _357
REMARK  140  A    between atoms: _357  and  _358
REMARK  141  A    between atoms: _357  and  _360
REMARK  142  A    between atoms: _360  and  _361
REMARK  143  A    between atoms: _364  and  _366
REMARK  144  A    between atoms: _366  and  _367
REMARK  145  A    between atoms: _366  and  _369
REMARK  146  A    between atoms: _369  and  _370
REMARK  147  A    between atoms: _373  and  _375
REMARK  148  A    between atoms: _375  and  _376
REMARK  149  A    between atoms: _375  and  _378
REMARK  150  A    between atoms: _378  and  _379
REMARK  151  A    between atoms: _379  and  _380
REMARK  152  A    between atoms: _383  and  _385
REMARK  153  A    between atoms: _385  and  _386
REMARK  154  A    between atoms: _385  and  _388
REMARK  155  A    between atoms: _388  and  _389
REMARK  156  A    between atoms: _389  and  _390
REMARK  157  A    between atoms: _392  and  _394
REMARK  158  A    between atoms: _394  and  _395
REMARK  159  A    between atoms: _394  and  _397
REMARK  160  A    between atoms: _397  and  _398
REMARK  161  A    between atoms: _408  and  _410
REMARK  162  A    between atoms: _410  and  _411
REMARK  163  A    between atoms: _410  and  _413
REMARK  164  A    between atoms: _413  and  _414
REMARK  165  A    between atoms: _414  and  _415
REMARK  166  A    between atoms: _420  and  _422
REMARK  167  A    between atoms: _422  and  _423
REMARK  168  A    between atoms: _422  and  _425
REMARK  169  A    between atoms: _425  and  _426
REMARK  170  A    between atoms: _432  and  _434
REMARK  171  A    between atoms: _434  and  _435
REMARK  172  A    between atoms: _434  and  _437
REMARK  173  A    between atoms: _437  and  _438
REMARK  174  A    between atoms: _438  and  _439
REMARK  175  A    between atoms: _442  and  _444
REMARK  176  A    between atoms: _444  and  _445
REMARK  177  A    between atoms: _444  and  _447
REMARK  178  A    between atoms: _447  and  _448
REMARK                            x       y       z     vdW  Elec       q    Type
REMARK                         _______ _______ _______ _____ _____    ______ ____
ROOT
ATOM      1  C   PHE A   1      26.252  -2.118  16.912  0.00  0.00    +0.239 C 
ATOM      2  N   HIS A   2      25.571  -2.685  17.932  0.00  0.00    -0.298 N 
ATOM      3  H   HIS A   2      25.988  -3.509  18.410  0.00  0.00    +0.150 HD
ATOM      4  O   PHE A   1      25.781  -1.180  16.243  0.00  0.00    -0.274 OA
ENDROOT
BRANCH   1   5
ATOM      5  CA  PHE A   1      27.629  -2.662  16.591  0.00  0.00    +0.149 C 
BRANCH   5   6
ATOM      6  N   PHE A   1      28.426  -2.817  17.861  0.00  0.00    -0.238 NA
ATOM      7  H   PHE A   1      28.646  -3.771  18.211  0.00  0.00    +0.142 HD
ENDBRANCH   5   6
BRANCH   5   8
ATOM      8  CB  PHE A   1      27.566  -4.044  15.974  0.00  0.00    +0.053 C 
BRANCH   8   9
ATOM      9  CG  PHE A   1      27.061  -4.126  14.557  0.00  0.00    -0.020 A 
ATOM     10  CD2 PHE A   1      27.171  -5.356  13.886  0.00  0.00    -0.004 A 
ATOM     11  CE2 PHE A   1      26.732  -5.520  12.586  0.00  0.00    -0.000 A 
ATOM     12  CZ  PHE A   1      26.160  -4.459  11.939  0.00  0.00    -0.000 A 
ATOM     13  CE1 PHE A   1      26.032  -3.237  12.551  0.00  0.00    -0.000 A 
ATOM     14  CD1 PHE A   1      26.468  -3.039  13.866  0.00  0.00    -0.004 A 
ENDBRANCH   8   9
ENDBRANCH   5   8
ENDBRANCH   1   5
BRANCH   2  15
ATOM     15  CA  HIS A   2      24.283  -2.195  18.390  0.00  0.00    +0.143 C 
BRANCH  15  16
ATOM     16  C   HIS A   2      24.310  -1.983  19.914  0.00  0.00    +0.227 C 
ATOM     17  O   HIS A   2      24.599  -2.922  20.650  0.00  0.00    -0.286 OA
ENDBRANCH  15  16
BRANCH  15  18
ATOM     18  CB  HIS A   2      23.120  -3.113  18.089  0.00  0.00    +0.075 C 
BRANCH  18  19
ATOM     19  CG  HIS A   2      22.974  -3.344  16.638  0.00  0.00    +0.082 A 
ATOM     20  ND1 HIS A   2      23.673  -4.338  15.999  0.00  0.00    -0.227 NA
ATOM     21  CE1 HIS A   2      23.456  -4.251  14.695  0.00  0.00    +0.199 A 
ATOM     22  NE2 HIS A   2      22.633  -3.239  14.472  0.00  0.00    -0.221 NA
ATOM     23  CD2 HIS A   2      22.341  -2.635  15.674  0.00  0.00    +0.115 A 
ENDBRANCH  18  19
ENDBRANCH  15  18
ENDBRANCH   2  15
TORSDOF 8
REMARK  Name = ../refined-set-2016/4u1b/4u1b_pocket.pdb
REMARK  178 active torsions:
REMARK  status: ('A' for Active; 'I' for Inactive)
REMARK    1  A    between atoms: _1  and  _3
REMARK    2  A    between atoms: _3  and  _4
REMARK    3  A    between atoms: _3  and  _6
REMARK    4  A    between atoms: _6  and  _7
REMARK    5  A    between atoms: _12  and  _13
REMARK    6  A    between atoms: _15  and  _17
REMARK    7  A    between atoms: _17  and  _18
REMARK    8  A    between atoms: _17  and  _20
REMARK    9  A    between atoms: _20  and  _21
REMARK   10  A    between atoms: _21  and  _22
REMARK   11  A    between atoms: _26  and  _27
REMARK   12  A    between atoms: _32  and  _34
REMARK   13  A    between atoms: _34  and  _35
REMARK   14  A    between atoms: _34  and  _37
REMARK   15  A    between atoms: _37  and  _38
REMARK   16  A    between atoms: _41  and  _42
REMARK   17  A    between atoms: _47  and  _49
REMARK   18  A    between atoms: _49  and  _50
REMARK   19  A    between atoms: _49  and  _52
REMARK   20  A    between atoms: _52  and  _53
REMARK   21  A    between atoms: _56  and  _58
REMARK   22  A    between atoms: _58  and  _59
REMARK   23  A    between atoms: _58  and  _61
REMARK   24  A    between atoms: _61  and  _62
REMARK   25  A    between atoms: _67  and  _69
REMARK   26  A    between atoms: _69  and  _70
REMARK   27  A    between atoms: _69  and  _72
REMARK   28  A    between atoms: _72  and  _73
REMARK   29  A    between atoms: _78  and  _79
REMARK   30  A    between atoms: _81  and  _83
REMARK   31  A    between atoms: _83  and  _84
REMARK   32  A    between atoms: _83  and  _86
REMARK   33  A    between atoms: _86  and  _87
REMARK   34  A    between atoms: _92  and  _93
REMARK   35  A    between atoms: _95  and  _97
REMARK   36  A    between atoms: _97  and  _98
REMARK   37  A    between atoms: _97  and  _100
REMARK   38  A    between atoms: _100  and  _101
REMARK   39  A    between atoms: _106  and  _108
REMARK   40  A    between atoms: _108  and  _109
REMARK   41  A    between atoms: _108  and  _111
REMARK   42  A    between atoms: _111  and  _112
REMARK   43  A    between atoms: _119  and  _120
REMARK   44  A    between atoms: _125  and  _127
REMARK   45  A    between atoms: _127  and  _128
REMARK   46  A    between atoms: _127  and  _130
REMARK   47  A    between atoms: _130  and  _131
REMARK   48  A    between atoms: _131  and  _132
REMARK   49  A    between atoms: _132  and  _133
REMARK   50  A    between atoms: _133  and  _134
REMARK   51  A    between atoms: _138  and  _140
REMARK   52  A    between atoms: _140  and  _141
REMARK   53  A    between atoms: _140  and  _143
REMARK   54  A    between atoms: _143  and  _144
REMARK   55  A    between atoms: _146  and  _148
REMARK   56  A    between atoms: _148  and  _149
REMARK   57  A    between atoms: _148  and  _151
REMARK   58  A    between atoms: _153  and  _155
REMARK   59  A    between atoms: _155  and  _156
REMARK   60  A    between atoms: _155  and  _158
REMARK   61  A    between atoms: _160  and  _162
REMARK   62  A    between atoms: _162  and  _163
REMARK   63  A    between atoms: _162  and  _165
REMARK   64  A    between atoms: _167  and  _169
REMARK   65  A    between atoms: _169  and  _170
REMARK   66  A    between atoms: _169  and  _172
REMARK   67  A    between atoms: _172  and  _173
REMARK   68  A    between atoms: _178  and  _180
REMARK   69  A    between atoms: _180  and  _181
REMARK   70  A    between atoms: _183  and  _185
REMARK   71  A    between atoms: _185  and  _186
REMARK   72  A    between atoms: _185  and  _188
REMARK   73  A    between atoms: _188  and  _189
REMARK   74  A    between atoms: _192  and  _194
REMARK   75  A    between atoms: _194  and  _195
REMARK   76  A    between atoms: _194  and  _197
REMARK   77  A    between atoms: _197  and  _198
REMARK   78  A    between atoms: _203  and  _205
REMARK   79  A    between atoms: _205  and  _206
REMARK   80  A    between atoms: _205  and  _208
REMARK   81  A    between atoms: _211  and  _213
REMARK   82  A    between atoms: _213  and  _214
REMARK   83  A    between atoms: _213  and  _216
REMARK   84  A    between atoms: _216  and  _217
REMARK   85  A    between atoms: _220  and  _222
REMARK   86  A    between atoms: _222  and  _223
REMARK   87  A    between atoms: _222  and  _225
REMARK   88  A    between atoms: _225  and  _226
REMARK   89  A    between atoms: _229  and  _231
REMARK   90  A    between atoms: _231  and  _232
REMARK   91  A    between atoms: _231  and  _234
REMARK   92  A    between atoms: _234  and  _235
REMARK   93  A    between atoms: _238  and  _240
REMARK   94  A    between atoms: _240  and  _241
REMARK   95  A    between atoms: _240  and  _243
REMARK   96  A    between atoms: _243  and  _244
REMARK   97  A    between atoms: _247  and  _249
REMARK   98  A    between atoms: _249  and  _250
REMARK   99  A    between atoms: _252  and  _254
REMARK  100  A    between atoms: _254  and  _255
REMARK  101  A    between atoms: _254  and  _257
REMARK  102  A    between atoms: _261  and  _263
REMARK  103  A    between atoms: _263  and  _264
REMARK  104  A    between atoms: _263  and  _266
REMARK  105  A    between atoms: _266  and  _267
REMARK  106  A    between atoms: _270  and  _272
REMARK  107  A    between atoms: _272  and  _273
REMARK  108  A    between atoms: _272  and  _275
REMARK  109  A    between atoms: _275  and  _276
REMARK  110  A    between atoms: _281  and  _283
REMARK  111  A    between atoms: _283  and  _284
REMARK  112  A    between atoms: _283  and  _286
REMARK  113  A    between atoms: _286  and  _287
REMARK  114  A    between atoms: _292  and  _293
REMARK  115  A    between atoms: _295  and  _297
REMARK  116  A    between atoms: _297  and  _298
REMARK  117  A    between atoms: _297  and  _300
REMARK  118  A    between atoms: _302  and  _304
REMARK  119  A    between atoms: _304  and  _305
REMARK  120  A    between atoms: _307  and  _309
REMARK  121  A    between atoms: _309  and  _310
REMARK  122  A    between atoms: _309  and  _312
REMARK  123  A    between atoms: _312  and  _313
REMARK  124  A    between atoms: _317  and  CO_451
REMARK  125  A    between atoms: _318  and  _320
REMARK  126  A    between atoms: _320  and  _321
REMARK  127  A    between atoms: _323  and  _325
REMARK  128  A    between atoms: _325  and  _326
REMARK  129  A    between atoms: _325  and  _328
REMARK  130  A    between atoms: _328  and  _329
REMARK  131  A    between atoms: _332  and  _334
REMARK  132  A    between atoms: _334  and  _335
REMARK  133  A    between atoms: _334  and  _337
REMARK  134  A    between atoms: _337  and  _338
REMARK  135  A    between atoms: _344  and  _346
REMARK  136  A    between atoms: _346  and  _347
REMARK  137  A    between atoms: _346  and  _349
REMARK  138  A    between atoms: _349  and  _350
REMARK  139  A    between atoms: _355  and  _357
REMARK  140  A    between atoms: _357  and  _358
REMARK  141  A    between atoms: _357  and  _360
REMARK  142  A    between atoms: _360  and  _361
REMARK  143  A    between atoms: _364  and  _366
REMARK  144  A    between atoms: _366  and  _367
REMARK  145  A    between atoms: _366  and  _369
REMARK  146  A    between atoms: _369  and  _370
REMARK  147  A    between atoms: _373  and  _375
REMARK  148  A    between atoms: _375  and  _376
REMARK  149  A    between atoms: _375  and  _378
REMARK  150  A    between atoms: _378  and  _379
REMARK  151  A    between atoms: _379  and  _380
REMARK  152  A    between atoms: _383  and  _385
REMARK  153  A    between atoms: _385  and  _386
REMARK  154  A    between atoms: _385  and  _388
REMARK  155  A    between atoms: _388  and  _389
REMARK  156  A    between atoms: _389  and  _390
REMARK  157  A    between atoms: _392  and  _394
REMARK  158  A    between atoms: _394  and  _395
REMARK  159  A    between atoms: _394  and  _397
REMARK  160  A    between atoms: _397  and  _398
REMARK  161  A    between atoms: _408  and  _410
REMARK  162  A    between atoms: _410  and  _411
REMARK  163  A    between atoms: _410  and  _413
REMARK  164  A    between atoms: _413  and  _414
REMARK  165  A    between atoms: _414  and  _415
REMARK  166  A    between atoms: _420  and  _422
REMARK  167  A    between atoms: _422  and  _423
REMARK  168  A    between atoms: _422  and  _425
REMARK  169  A    between atoms: _425  and  _426
REMARK  170  A    between atoms: _432  and  _434
REMARK  171  A    between atoms: _434  and  _435
REMARK  172  A    between atoms: _434  and  _437
REMARK  173  A    between atoms: _437  and  _438
REMARK  174  A    between atoms: _438  and  _439
REMARK  175  A    between atoms: _442  and  _444
REMARK  176  A    between atoms: _444  and  _445
REMARK  177  A    between atoms: _444  and  _447
REMARK  178  A    between atoms: _447  and  _448
REMARK                            x       y       z     vdW  Elec       q    Type
REMARK                         _______ _______ _______ _____ _____    ______ ____
ROOT
ATOM      1  CA  ILE A   2      18.715   6.641  12.023  0.00  0.00    +0.148 C 
ENDROOT
BRANCH   1   4
ATOM      2  C   THR A   1      20.558   5.984  13.458  0.00  0.00    +0.241 C 
ATOM      3  O   THR A   1      19.897   5.829  14.443  0.00  0.00    -0.274 OA
ATOM      4  N   ILE A   2      20.075   6.543  12.338  0.00  0.00    -0.297 N 
ATOM      5  H   ILE A   2      20.759   6.930  11.657  0.00  0.00    +0.150 HD
BRANCH   2   6
ATOM      6  CA  THR A   1      22.011   5.604  13.470  0.00  0.00    +0.172 C 
BRANCH   6   7
ATOM      7  N   THR A   1      22.609   5.598  14.871  0.00  0.00    -0.236 NA
ATOM      8  H   THR A   1      22.372   4.835  15.537  0.00  0.00    +0.142 HD
ENDBRANCH   6   7
BRANCH   6   9
ATOM      9  CB  THR A   1      22.124   4.200  12.852  0.00  0.00    +0.135 C 
ATOM     10  CG2 THR A   1      23.523   3.633  12.996  0.00  0.00    +0.034 C 
BRANCH   9  11
ATOM     11  OG1 THR A   1      21.156   3.320  13.412  0.00  0.00    -0.383 OA
ATOM     12  HG1 THR A   1      21.248   2.425  13.000  0.00  0.00    +0.210 HD
ENDBRANCH   9  11
ENDBRANCH   6   9
ENDBRANCH   2   6
ENDBRANCH   1   4
BRANCH   1  13
ATOM     13  C   ILE A   2      18.538   5.867  10.705  0.00  0.00    +0.241 C 
ATOM     14  N   GLU A   3      17.581   4.936  10.645  0.00  0.00    -0.298 N 
ATOM     15  H   GLU A   3      16.931   4.830  11.450  0.00  0.00    +0.150 HD
ATOM     16  O   ILE A   2      19.348   6.074   9.803  0.00  0.00    -0.273 OA
BRANCH  14  17
ATOM     17  CA  GLU A   3      17.417   4.057   9.479  0.00  0.00    +0.137 C 
BRANCH  17  18
ATOM     18  C   GLU A   3      15.991   3.673   9.182  0.00  0.00    +0.227 C 
ATOM     19  O   GLU A   3      15.626   2.518   9.222  0.00  0.00    -0.286 OA
ENDBRANCH  17  18
BRANCH  17  20
ATOM     20  CB  GLU A   3      18.305   2.877   9.594  0.00  0.00    +0.039 C 
BRANCH  20  21
ATOM     21  CG  GLU A   3      18.115   1.982  10.814  0.00  0.00    +0.116 C 
BRANCH  21  22
ATOM     22  CD  GLU A   3      19.186   0.921  10.949  0.00  0.00    +0.365 C 
ATOM     23  OE2 GLU A   3      19.890   0.901  11.917  0.00  0.00    -0.246 OA
ATOM     24  OE1 GLU A   3      19.416   0.087  10.054  0.00  0.00    -0.246 OA
ENDBRANCH  21  22
ENDBRANCH  20  21
ENDBRANCH  17  20
ENDBRANCH  14  17
ENDBRANCH   1  13
BRANCH   1  25
ATOM     25  CB  ILE A   2      18.294   8.098  11.807  0.00  0.00    +0.027 C 
ATOM     26  CG2 ILE A   2      16.789   8.187  11.731  0.00  0.00    +0.002 C 
BRANCH  25  27
ATOM     27  CG1 ILE A   2      18.634   8.886  13.063  0.00  0.00    +0.002 C 
ATOM     28  CD1 ILE A   2      18.204  10.296  12.919  0.00  0.00    +0.000 C 
ENDBRANCH  25  27
ENDBRANCH   1  25
TORSDOF 13
REMARK  Name = ../refined-set-2016/4u1b/4u1b_pocket.pdb
REMARK  178 active torsions:
REMARK  status: ('A' for Active; 'I' for Inactive)
REMARK    1  A    between atoms: _1  and  _3
REMARK    2  A    between atoms: _3  and  _4
REMARK    3  A    between atoms: _3  and  _6
REMARK    4  A    between atoms: _6  and  _7
REMARK    5  A    between atoms: _12  and  _13
REMARK    6  A    between atoms: _15  and  _17
REMARK    7  A    between atoms: _17  and  _18
REMARK    8  A    between atoms: _17  and  _20
REMARK    9  A    between atoms: _20  and  _21
REMARK   10  A    between atoms: _21  and  _22
REMARK   11  A    between atoms: _26  and  _27
REMARK   12  A    between atoms: _32  and  _34
REMARK   13  A    between atoms: _34  and  _35
REMARK   14  A    between atoms: _34  and  _37
REMARK   15  A    between atoms: _37  and  _38
REMARK   16  A    between atoms: _41  and  _42
REMARK   17  A    between atoms: _47  and  _49
REMARK   18  A    between atoms: _49  and  _50
REMARK   19  A    between atoms: _49  and  _52
REMARK   20  A    between atoms: _52  and  _53
REMARK   21  A    between atoms: _56  and  _58
REMARK   22  A    between atoms: _58  and  _59
REMARK   23  A    between atoms: _58  and  _61
REMARK   24  A    between atoms: _61  and  _62
REMARK   25  A    between atoms: _67  and  _69
REMARK   26  A    between atoms: _69  and  _70
REMARK   27  A    between atoms: _69  and  _72
REMARK   28  A    between atoms: _72  and  _73
REMARK   29  A    between atoms: _78  and  _79
REMARK   30  A    between atoms: _81  and  _83
REMARK   31  A    between atoms: _83  and  _84
REMARK   32  A    between atoms: _83  and  _86
REMARK   33  A    between atoms: _86  and  _87
REMARK   34  A    between atoms: _92  and  _93
REMARK   35  A    between atoms: _95  and  _97
REMARK   36  A    between atoms: _97  and  _98
REMARK   37  A    between atoms: _97  and  _100
REMARK   38  A    between atoms: _100  and  _101
REMARK   39  A    between atoms: _106  and  _108
REMARK   40  A    between atoms: _108  and  _109
REMARK   41  A    between atoms: _108  and  _111
REMARK   42  A    between atoms: _111  and  _112
REMARK   43  A    between atoms: _119  and  _120
REMARK   44  A    between atoms: _125  and  _127
REMARK   45  A    between atoms: _127  and  _128
REMARK   46  A    between atoms: _127  and  _130
REMARK   47  A    between atoms: _130  and  _131
REMARK   48  A    between atoms: _131  and  _132
REMARK   49  A    between atoms: _132  and  _133
REMARK   50  A    between atoms: _133  and  _134
REMARK   51  A    between atoms: _138  and  _140
REMARK   52  A    between atoms: _140  and  _141
REMARK   53  A    between atoms: _140  and  _143
REMARK   54  A    between atoms: _143  and  _144
REMARK   55  A    between atoms: _146  and  _148
REMARK   56  A    between atoms: _148  and  _149
REMARK   57  A    between atoms: _148  and  _151
REMARK   58  A    between atoms: _153  and  _155
REMARK   59  A    between atoms: _155  and  _156
REMARK   60  A    between atoms: _155  and  _158
REMARK   61  A    between atoms: _160  and  _162
REMARK   62  A    between atoms: _162  and  _163
REMARK   63  A    between atoms: _162  and  _165
REMARK   64  A    between atoms: _167  and  _169
REMARK   65  A    between atoms: _169  and  _170
REMARK   66  A    between atoms: _169  and  _172
REMARK   67  A    between atoms: _172  and  _173
REMARK   68  A    between atoms: _178  and  _180
REMARK   69  A    between atoms: _180  and  _181
REMARK   70  A    between atoms: _183  and  _185
REMARK   71  A    between atoms: _185  and  _186
REMARK   72  A    between atoms: _185  and  _188
REMARK   73  A    between atoms: _188  and  _189
REMARK   74  A    between atoms: _192  and  _194
REMARK   75  A    between atoms: _194  and  _195
REMARK   76  A    between atoms: _194  and  _197
REMARK   77  A    between atoms: _197  and  _198
REMARK   78  A    between atoms: _203  and  _205
REMARK   79  A    between atoms: _205  and  _206
REMARK   80  A    between atoms: _205  and  _208
REMARK   81  A    between atoms: _211  and  _213
REMARK   82  A    between atoms: _213  and  _214
REMARK   83  A    between atoms: _213  and  _216
REMARK   84  A    between atoms: _216  and  _217
REMARK   85  A    between atoms: _220  and  _222
REMARK   86  A    between atoms: _222  and  _223
REMARK   87  A    between atoms: _222  and  _225
REMARK   88  A    between atoms: _225  and  _226
REMARK   89  A    between atoms: _229  and  _231
REMARK   90  A    between atoms: _231  and  _232
REMARK   91  A    between atoms: _231  and  _234
REMARK   92  A    between atoms: _234  and  _235
REMARK   93  A    between atoms: _238  and  _240
REMARK   94  A    between atoms: _240  and  _241
REMARK   95  A    between atoms: _240  and  _243
REMARK   96  A    between atoms: _243  and  _244
REMARK   97  A    between atoms: _247  and  _249
REMARK   98  A    between atoms: _249  and  _250
REMARK   99  A    between atoms: _252  and  _254
REMARK  100  A    between atoms: _254  and  _255
REMARK  101  A    between atoms: _254  and  _257
REMARK  102  A    between atoms: _261  and  _263
REMARK  103  A    between atoms: _263  and  _264
REMARK  104  A    between atoms: _263  and  _266
REMARK  105  A    between atoms: _266  and  _267
REMARK  106  A    between atoms: _270  and  _272
REMARK  107  A    between atoms: _272  and  _273
REMARK  108  A    between atoms: _272  and  _275
REMARK  109  A    between atoms: _275  and  _276
REMARK  110  A    between atoms: _281  and  _283
REMARK  111  A    between atoms: _283  and  _284
REMARK  112  A    between atoms: _283  and  _286
REMARK  113  A    between atoms: _286  and  _287
REMARK  114  A    between atoms: _292  and  _293
REMARK  115  A    between atoms: _295  and  _297
REMARK  116  A    between atoms: _297  and  _298
REMARK  117  A    between atoms: _297  and  _300
REMARK  118  A    between atoms: _302  and  _304
REMARK  119  A    between atoms: _304  and  _305
REMARK  120  A    between atoms: _307  and  _309
REMARK  121  A    between atoms: _309  and  _310
REMARK  122  A    between atoms: _309  and  _312
REMARK  123  A    between atoms: _312  and  _313
REMARK  124  A    between atoms: _317  and  CO_451
REMARK  125  A    between atoms: _318  and  _320
REMARK  126  A    between atoms: _320  and  _321
REMARK  127  A    between atoms: _323  and  _325
REMARK  128  A    between atoms: _325  and  _326
REMARK  129  A    between atoms: _325  and  _328
REMARK  130  A    between atoms: _328  and  _329
REMARK  131  A    between atoms: _332  and  _334
REMARK  132  A    between atoms: _334  and  _335
REMARK  133  A    between atoms: _334  and  _337
REMARK  134  A    between atoms: _337  and  _338
REMARK  135  A    between atoms: _344  and  _346
REMARK  136  A    between atoms: _346  and  _347
REMARK  137  A    between atoms: _346  and  _349
REMARK  138  A    between atoms: _349  and  _350
REMARK  139  A    between atoms: _355  and  _357
REMARK  140  A    between atoms: _357  and  _358
REMARK  141  A    between atoms: _357  and  _360
REMARK  142  A    between atoms: _360  and  _361
REMARK  143  A    between atoms: _364  and  _366
REMARK  144  A    between atoms: _366  and  _367
REMARK  145  A    between atoms: _366  and  _369
REMARK  146  A    between atoms: _369  and  _370
REMARK  147  A    between atoms: _373  and  _375
REMARK  148  A    between atoms: _375  and  _376
REMARK  149  A    between atoms: _375  and  _378
REMARK  150  A    between atoms: _378  and  _379
REMARK  151  A    between atoms: _379  and  _380
REMARK  152  A    between atoms: _383  and  _385
REMARK  153  A    between atoms: _385  and  _386
REMARK  154  A    between atoms: _385  and  _388
REMARK  155  A    between atoms: _388  and  _389
REMARK  156  A    between atoms: _389  and  _390
REMARK  157  A    between atoms: _392  and  _394
REMARK  158  A    between atoms: _394  and  _395
REMARK  159  A    between atoms: _394  and  _397
REMARK  160  A    between atoms: _397  and  _398
REMARK  161  A    between atoms: _408  and  _410
REMARK  162  A    between atoms: _410  and  _411
REMARK  163  A    between atoms: _410  and  _413
REMARK  164  A    between atoms: _413  and  _414
REMARK  165  A    between atoms: _414  and  _415
REMARK  166  A    between atoms: _420  and  _422
REMARK  167  A    between atoms: _422  and  _423
REMARK  168  A    between atoms: _422  and  _425
REMARK  169  A    between atoms: _425  and  _426
REMARK  170  A    between atoms: _432  and  _434
REMARK  171  A    between atoms: _434  and  _435
REMARK  172  A    between atoms: _434  and  _437
REMARK  173  A    between atoms: _437  and  _438
REMARK  174  A    between atoms: _438  and  _439
REMARK  175  A    between atoms: _442  and  _444
REMARK  176  A    between atoms: _444  and  _445
REMARK  177  A    between atoms: _444  and  _447
REMARK  178  A    between atoms: _447  and  _448
REMARK                            x       y       z     vdW  Elec       q    Type
REMARK                         _______ _______ _______ _____ _____    ______ ____
ROOT
ATOM      1  CA  MET A   1      11.980   1.573   6.844  0.00  0.00    +0.134 C 
ENDROOT
BRANCH   1   2
ATOM      2  N   MET A   1      12.579   2.438   7.823  0.00  0.00    -0.239 NA
ATOM      3  H   MET A   1      12.316   2.300   8.820  0.00  0.00    +0.142 HD
ENDBRANCH   1   2
BRANCH   1   4
ATOM      4  C   MET A   1      10.487   1.976   6.690  0.00  0.00    +0.224 C 
ATOM      5  O   MET A   1       9.718   1.958   7.680  0.00  0.00    -0.287 OA
ENDBRANCH   1   4
BRANCH   1   6
ATOM      6  CB  MET A   1      12.059   0.159   7.296  0.00  0.00    +0.037 C 
BRANCH   6   7
ATOM      7  CG  MET A   1      13.514  -0.340   7.452  0.00  0.00    +0.059 C 
BRANCH   7   8
ATOM      8  SD  MET A   1      13.784  -1.378   8.888  0.00  0.00    -0.139 S 
ATOM      9  CE  MET A   1      13.770  -0.118  10.175  0.00  0.00    +0.069 C 
ENDBRANCH   7   8
ENDBRANCH   6   7
ENDBRANCH   1   6
TORSDOF 5
REMARK  Name = ../refined-set-2016/4u1b/4u1b_pocket.pdb
REMARK  178 active torsions:
REMARK  status: ('A' for Active; 'I' for Inactive)
REMARK    1  A    between atoms: _1  and  _3
REMARK    2  A    between atoms: _3  and  _4
REMARK    3  A    between atoms: _3  and  _6
REMARK    4  A    between atoms: _6  and  _7
REMARK    5  A    between atoms: _12  and  _13
REMARK    6  A    between atoms: _15  and  _17
REMARK    7  A    between atoms: _17  and  _18
REMARK    8  A    between atoms: _17  and  _20
REMARK    9  A    between atoms: _20  and  _21
REMARK   10  A    between atoms: _21  and  _22
REMARK   11  A    between atoms: _26  and  _27
REMARK   12  A    between atoms: _32  and  _34
REMARK   13  A    between atoms: _34  and  _35
REMARK   14  A    between atoms: _34  and  _37
REMARK   15  A    between atoms: _37  and  _38
REMARK   16  A    between atoms: _41  and  _42
REMARK   17  A    between atoms: _47  and  _49
REMARK   18  A    between atoms: _49  and  _50
REMARK   19  A    between atoms: _49  and  _52
REMARK   20  A    between atoms: _52  and  _53
REMARK   21  A    between atoms: _56  and  _58
REMARK   22  A    between atoms: _58  and  _59
REMARK   23  A    between atoms: _58  and  _61
REMARK   24  A    between atoms: _61  and  _62
REMARK   25  A    between atoms: _67  and  _69
REMARK   26  A    between atoms: _69  and  _70
REMARK   27  A    between atoms: _69  and  _72
REMARK   28  A    between atoms: _72  and  _73
REMARK   29  A    between atoms: _78  and  _79
REMARK   30  A    between atoms: _81  and  _83
REMARK   31  A    between atoms: _83  and  _84
REMARK   32  A    between atoms: _83  and  _86
REMARK   33  A    between atoms: _86  and  _87
REMARK   34  A    between atoms: _92  and  _93
REMARK   35  A    between atoms: _95  and  _97
REMARK   36  A    between atoms: _97  and  _98
REMARK   37  A    between atoms: _97  and  _100
REMARK   38  A    between atoms: _100  and  _101
REMARK   39  A    between atoms: _106  and  _108
REMARK   40  A    between atoms: _108  and  _109
REMARK   41  A    between atoms: _108  and  _111
REMARK   42  A    between atoms: _111  and  _112
REMARK   43  A    between atoms: _119  and  _120
REMARK   44  A    between atoms: _125  and  _127
REMARK   45  A    between atoms: _127  and  _128
REMARK   46  A    between atoms: _127  and  _130
REMARK   47  A    between atoms: _130  and  _131
REMARK   48  A    between atoms: _131  and  _132
REMARK   49  A    between atoms: _132  and  _133
REMARK   50  A    between atoms: _133  and  _134
REMARK   51  A    between atoms: _138  and  _140
REMARK   52  A    between atoms: _140  and  _141
REMARK   53  A    between atoms: _140  and  _143
REMARK   54  A    between atoms: _143  and  _144
REMARK   55  A    between atoms: _146  and  _148
REMARK   56  A    between atoms: _148  and  _149
REMARK   57  A    between atoms: _148  and  _151
REMARK   58  A    between atoms: _153  and  _155
REMARK   59  A    between atoms: _155  and  _156
REMARK   60  A    between atoms: _155  and  _158
REMARK   61  A    between atoms: _160  and  _162
REMARK   62  A    between atoms: _162  and  _163
REMARK   63  A    between atoms: _162  and  _165
REMARK   64  A    between atoms: _167  and  _169
REMARK   65  A    between atoms: _169  and  _170
REMARK   66  A    between atoms: _169  and  _172
REMARK   67  A    between atoms: _172  and  _173
REMARK   68  A    between atoms: _178  and  _180
REMARK   69  A    between atoms: _180  and  _181
REMARK   70  A    between atoms: _183  and  _185
REMARK   71  A    between atoms: _185  and  _186
REMARK   72  A    between atoms: _185  and  _188
REMARK   73  A    between atoms: _188  and  _189
REMARK   74  A    between atoms: _192  and  _194
REMARK   75  A    between atoms: _194  and  _195
REMARK   76  A    between atoms: _194  and  _197
REMARK   77  A    between atoms: _197  and  _198
REMARK   78  A    between atoms: _203  and  _205
REMARK   79  A    between atoms: _205  and  _206
REMARK   80  A    between atoms: _205  and  _208
REMARK   81  A    between atoms: _211  and  _213
REMARK   82  A    between atoms: _213  and  _214
REMARK   83  A    between atoms: _213  and  _216
REMARK   84  A    between atoms: _216  and  _217
REMARK   85  A    between atoms: _220  and  _222
REMARK   86  A    between atoms: _222  and  _223
REMARK   87  A    between atoms: _222  and  _225
REMARK   88  A    between atoms: _225  and  _226
REMARK   89  A    between atoms: _229  and  _231
REMARK   90  A    between atoms: _231  and  _232
REMARK   91  A    between atoms: _231  and  _234
REMARK   92  A    between atoms: _234  and  _235
REMARK   93  A    between atoms: _238  and  _240
REMARK   94  A    between atoms: _240  and  _241
REMARK   95  A    between atoms: _240  and  _243
REMARK   96  A    between atoms: _243  and  _244
REMARK   97  A    between atoms: _247  and  _249
REMARK   98  A    between atoms: _249  and  _250
REMARK   99  A    between atoms: _252  and  _254
REMARK  100  A    between atoms: _254  and  _255
REMARK  101  A    between atoms: _254  and  _257
REMARK  102  A    between atoms: _261  and  _263
REMARK  103  A    between atoms: _263  and  _264
REMARK  104  A    between atoms: _263  and  _266
REMARK  105  A    between atoms: _266  and  _267
REMARK  106  A    between atoms: _270  and  _272
REMARK  107  A    between atoms: _272  and  _273
REMARK  108  A    between atoms: _272  and  _275
REMARK  109  A    between atoms: _275  and  _276
REMARK  110  A    between atoms: _281  and  _283
REMARK  111  A    between atoms: _283  and  _284
REMARK  112  A    between atoms: _283  and  _286
REMARK  113  A    between atoms: _286  and  _287
REMARK  114  A    between atoms: _292  and  _293
REMARK  115  A    between atoms: _295  and  _297
REMARK  116  A    between atoms: _297  and  _298
REMARK  117  A    between atoms: _297  and  _300
REMARK  118  A    between atoms: _302  and  _304
REMARK  119  A    between atoms: _304  and  _305
REMARK  120  A    between atoms: _307  and  _309
REMARK  121  A    between atoms: _309  and  _310
REMARK  122  A    between atoms: _309  and  _312
REMARK  123  A    between atoms: _312  and  _313
REMARK  124  A    between atoms: _317  and  CO_451
REMARK  125  A    between atoms: _318  and  _320
REMARK  126  A    between atoms: _320  and  _321
REMARK  127  A    between atoms: _323  and  _325
REMARK  128  A    between atoms: _325  and  _326
REMARK  129  A    between atoms: _325  and  _328
REMARK  130  A    between atoms: _328  and  _329
REMARK  131  A    between atoms: _332  and  _334
REMARK  132  A    between atoms: _334  and  _335
REMARK  133  A    between atoms: _334  and  _337
REMARK  134  A    between atoms: _337  and  _338
REMARK  135  A    between atoms: _344  and  _346
REMARK  136  A    between atoms: _346  and  _347
REMARK  137  A    between atoms: _346  and  _349
REMARK  138  A    between atoms: _349  and  _350
REMARK  139  A    between atoms: _355  and  _357
REMARK  140  A    between atoms: _357  and  _358
REMARK  141  A    between atoms: _357  and  _360
REMARK  142  A    between atoms: _360  and  _361
REMARK  143  A    between atoms: _364  and  _366
REMARK  144  A    between atoms: _366  and  _367
REMARK  145  A    between atoms: _366  and  _369
REMARK  146  A    between atoms: _369  and  _370
REMARK  147  A    between atoms: _373  and  _375
REMARK  148  A    between atoms: _375  and  _376
REMARK  149  A    between atoms: _375  and  _378
REMARK  150  A    between atoms: _378  and  _379
REMARK  151  A    between atoms: _379  and  _380
REMARK  152  A    between atoms: _383  and  _385
REMARK  153  A    between atoms: _385  and  _386
REMARK  154  A    between atoms: _385  and  _388
REMARK  155  A    between atoms: _388  and  _389
REMARK  156  A    between atoms: _389  and  _390
REMARK  157  A    between atoms: _392  and  _394
REMARK  158  A    between atoms: _394  and  _395
REMARK  159  A    between atoms: _394  and  _397
REMARK  160  A    between atoms: _397  and  _398
REMARK  161  A    between atoms: _408  and  _410
REMARK  162  A    between atoms: _410  and  _411
REMARK  163  A    between atoms: _410  and  _413
REMARK  164  A    between atoms: _413  and  _414
REMARK  165  A    between atoms: _414  and  _415
REMARK  166  A    between atoms: _420  and  _422
REMARK  167  A    between atoms: _422  and  _423
REMARK  168  A    between atoms: _422  and  _425
REMARK  169  A    between atoms: _425  and  _426
REMARK  170  A    between atoms: _432  and  _434
REMARK  171  A    between atoms: _434  and  _435
REMARK  172  A    between atoms: _434  and  _437
REMARK  173  A    between atoms: _437  and  _438
REMARK  174  A    between atoms: _438  and  _439
REMARK  175  A    between atoms: _442  and  _444
REMARK  176  A    between atoms: _444  and  _445
REMARK  177  A    between atoms: _444  and  _447
REMARK  178  A    between atoms: _447  and  _448
REMARK                            x       y       z     vdW  Elec       q    Type
REMARK                         _______ _______ _______ _____ _____    ______ ____
ROOT
ATOM      1  CG  TRP A   1      19.510 -13.293   9.679  0.00  0.00    -0.002 A 
ATOM      2  CD2 TRP A   1      19.963 -12.317  10.639  0.00  0.00    +0.013 A 
ATOM      3  CE2 TRP A   1      20.993 -12.921  11.410  0.00  0.00    +0.056 A 
ATOM      4  CZ2 TRP A   1      21.672 -12.222  12.413  0.00  0.00    +0.017 A 
ATOM      5  CH2 TRP A   1      21.334 -10.905  12.613  0.00  0.00    +0.001 A 
ATOM      6  CZ3 TRP A   1      20.308 -10.286  11.877  0.00  0.00    +0.000 A 
ATOM      7  NE1 TRP A   1      21.143 -14.220  11.001  0.00  0.00    -0.352 N 
ATOM      8  HE1 TRP A   1      21.805 -14.908  11.413  0.00  0.00    +0.166 HD
ATOM      9  CE3 TRP A   1      19.643 -10.974  10.866  0.00  0.00    +0.001 A 
ATOM     10  CD1 TRP A   1      20.272 -14.473   9.951  0.00  0.00    +0.068 A 
ENDROOT
BRANCH   1  11
ATOM     11  CB  TRP A   1      18.462 -13.082   8.664  0.00  0.00    +0.053 C 
BRANCH  11  12
ATOM     12  CA  TRP A   1      17.095 -12.981   9.271  0.00  0.00    +0.137 C 
BRANCH  12  13
ATOM     13  N   TRP A   1      16.636 -14.319   9.533  0.00  0.00    -0.239 NA
ATOM     14  H   TRP A   1      16.472 -14.946   8.719  0.00  0.00    +0.142 HD
ENDBRANCH  12  13
BRANCH  12  15
ATOM     15  C   TRP A   1      16.136 -12.125   8.373  0.00  0.00    +0.224 C 
ATOM     16  O   TRP A   1      15.946 -10.968   8.648  0.00  0.00    -0.287 OA
ENDBRANCH  12  15
ENDBRANCH  11  12
ENDBRANCH   1  11
TORSDOF 4
REMARK  Name = ../refined-set-2016/4u1b/4u1b_pocket.pdb
REMARK  178 active torsions:
REMARK  status: ('A' for Active; 'I' for Inactive)
REMARK    1  A    between atoms: _1  and  _3
REMARK    2  A    between atoms: _3  and  _4
REMARK    3  A    between atoms: _3  and  _6
REMARK    4  A    between atoms: _6  and  _7
REMARK    5  A    between atoms: _12  and  _13
REMARK    6  A    between atoms: _15  and  _17
REMARK    7  A    between atoms: _17  and  _18
REMARK    8  A    between atoms: _17  and  _20
REMARK    9  A    between atoms: _20  and  _21
REMARK   10  A    between atoms: _21  and  _22
REMARK   11  A    between atoms: _26  and  _27
REMARK   12  A    between atoms: _32  and  _34
REMARK   13  A    between atoms: _34  and  _35
REMARK   14  A    between atoms: _34  and  _37
REMARK   15  A    between atoms: _37  and  _38
REMARK   16  A    between atoms: _41  and  _42
REMARK   17  A    between atoms: _47  and  _49
REMARK   18  A    between atoms: _49  and  _50
REMARK   19  A    between atoms: _49  and  _52
REMARK   20  A    between atoms: _52  and  _53
REMARK   21  A    between atoms: _56  and  _58
REMARK   22  A    between atoms: _58  and  _59
REMARK   23  A    between atoms: _58  and  _61
REMARK   24  A    between atoms: _61  and  _62
REMARK   25  A    between atoms: _67  and  _69
REMARK   26  A    between atoms: _69  and  _70
REMARK   27  A    between atoms: _69  and  _72
REMARK   28  A    between atoms: _72  and  _73
REMARK   29  A    between atoms: _78  and  _79
REMARK   30  A    between atoms: _81  and  _83
REMARK   31  A    between atoms: _83  and  _84
REMARK   32  A    between atoms: _83  and  _86
REMARK   33  A    between atoms: _86  and  _87
REMARK   34  A    between atoms: _92  and  _93
REMARK   35  A    between atoms: _95  and  _97
REMARK   36  A    between atoms: _97  and  _98
REMARK   37  A    between atoms: _97  and  _100
REMARK   38  A    between atoms: _100  and  _101
REMARK   39  A    between atoms: _106  and  _108
REMARK   40  A    between atoms: _108  and  _109
REMARK   41  A    between atoms: _108  and  _111
REMARK   42  A    between atoms: _111  and  _112
REMARK   43  A    between atoms: _119  and  _120
REMARK   44  A    between atoms: _125  and  _127
REMARK   45  A    between atoms: _127  and  _128
REMARK   46  A    between atoms: _127  and  _130
REMARK   47  A    between atoms: _130  and  _131
REMARK   48  A    between atoms: _131  and  _132
REMARK   49  A    between atoms: _132  and  _133
REMARK   50  A    between atoms: _133  and  _134
REMARK   51  A    between atoms: _138  and  _140
REMARK   52  A    between atoms: _140  and  _141
REMARK   53  A    between atoms: _140  and  _143
REMARK   54  A    between atoms: _143  and  _144
REMARK   55  A    between atoms: _146  and  _148
REMARK   56  A    between atoms: _148  and  _149
REMARK   57  A    between atoms: _148  and  _151
REMARK   58  A    between atoms: _153  and  _155
REMARK   59  A    between atoms: _155  and  _156
REMARK   60  A    between atoms: _155  and  _158
REMARK   61  A    between atoms: _160  and  _162
REMARK   62  A    between atoms: _162  and  _163
REMARK   63  A    between atoms: _162  and  _165
REMARK   64  A    between atoms: _167  and  _169
REMARK   65  A    between atoms: _169  and  _170
REMARK   66  A    between atoms: _169  and  _172
REMARK   67  A    between atoms: _172  and  _173
REMARK   68  A    between atoms: _178  and  _180
REMARK   69  A    between atoms: _180  and  _181
REMARK   70  A    between atoms: _183  and  _185
REMARK   71  A    between atoms: _185  and  _186
REMARK   72  A    between atoms: _185  and  _188
REMARK   73  A    between atoms: _188  and  _189
REMARK   74  A    between atoms: _192  and  _194
REMARK   75  A    between atoms: _194  and  _195
REMARK   76  A    between atoms: _194  and  _197
REMARK   77  A    between atoms: _197  and  _198
REMARK   78  A    between atoms: _203  and  _205
REMARK   79  A    between atoms: _205  and  _206
REMARK   80  A    between atoms: _205  and  _208
REMARK   81  A    between atoms: _211  and  _213
REMARK   82  A    between atoms: _213  and  _214
REMARK   83  A    between atoms: _213  and  _216
REMARK   84  A    between atoms: _216  and  _217
REMARK   85  A    between atoms: _220  and  _222
REMARK   86  A    between atoms: _222  and  _223
REMARK   87  A    between atoms: _222  and  _225
REMARK   88  A    between atoms: _225  and  _226
REMARK   89  A    between atoms: _229  and  _231
REMARK   90  A    between atoms: _231  and  _232
REMARK   91  A    between atoms: _231  and  _234
REMARK   92  A    between atoms: _234  and  _235
REMARK   93  A    between atoms: _238  and  _240
REMARK   94  A    between atoms: _240  and  _241
REMARK   95  A    between atoms: _240  and  _243
REMARK   96  A    between atoms: _243  and  _244
REMARK   97  A    between atoms: _247  and  _249
REMARK   98  A    between atoms: _249  and  _250
REMARK   99  A    between atoms: _252  and  _254
REMARK  100  A    between atoms: _254  and  _255
REMARK  101  A    between atoms: _254  and  _257
REMARK  102  A    between atoms: _261  and  _263
REMARK  103  A    between atoms: _263  and  _264
REMARK  104  A    between atoms: _263  and  _266
REMARK  105  A    between atoms: _266  and  _267
REMARK  106  A    between atoms: _270  and  _272
REMARK  107  A    between atoms: _272  and  _273
REMARK  108  A    between atoms: _272  and  _275
REMARK  109  A    between atoms: _275  and  _276
REMARK  110  A    between atoms: _281  and  _283
REMARK  111  A    between atoms: _283  and  _284
REMARK  112  A    between atoms: _283  and  _286
REMARK  113  A    between atoms: _286  and  _287
REMARK  114  A    between atoms: _292  and  _293
REMARK  115  A    between atoms: _295  and  _297
REMARK  116  A    between atoms: _297  and  _298
REMARK  117  A    between atoms: _297  and  _300
REMARK  118  A    between atoms: _302  and  _304
REMARK  119  A    between atoms: _304  and  _305
REMARK  120  A    between atoms: _307  and  _309
REMARK  121  A    between atoms: _309  and  _310
REMARK  122  A    between atoms: _309  and  _312
REMARK  123  A    between atoms: _312  and  _313
REMARK  124  A    between atoms: _317  and  CO_451
REMARK  125  A    between atoms: _318  and  _320
REMARK  126  A    between atoms: _320  and  _321
REMARK  127  A    between atoms: _323  and  _325
REMARK  128  A    between atoms: _325  and  _326
REMARK  129  A    between atoms: _325  and  _328
REMARK  130  A    between atoms: _328  and  _329
REMARK  131  A    between atoms: _332  and  _334
REMARK  132  A    between atoms: _334  and  _335
REMARK  133  A    between atoms: _334  and  _337
REMARK  134  A    between atoms: _337  and  _338
REMARK  135  A    between atoms: _344  and  _346
REMARK  136  A    between atoms: _346  and  _347
REMARK  137  A    between atoms: _346  and  _349
REMARK  138  A    between atoms: _349  and  _350
REMARK  139  A    between atoms: _355  and  _357
REMARK  140  A    between atoms: _357  and  _358
REMARK  141  A    between atoms: _357  and  _360
REMARK  142  A    between atoms: _360  and  _361
REMARK  143  A    between atoms: _364  and  _366
REMARK  144  A    between atoms: _366  and  _367
REMARK  145  A    between atoms: _366  and  _369
REMARK  146  A    between atoms: _369  and  _370
REMARK  147  A    between atoms: _373  and  _375
REMARK  148  A    between atoms: _375  and  _376
REMARK  149  A    between atoms: _375  and  _378
REMARK  150  A    between atoms: _378  and  _379
REMARK  151  A    between atoms: _379  and  _380
REMARK  152  A    between atoms: _383  and  _385
REMARK  153  A    between atoms: _385  and  _386
REMARK  154  A    between atoms: _385  and  _388
REMARK  155  A    between atoms: _388  and  _389
REMARK  156  A    between atoms: _389  and  _390
REMARK  157  A    between atoms: _392  and  _394
REMARK  158  A    between atoms: _394  and  _395
REMARK  159  A    between atoms: _394  and  _397
REMARK  160  A    between atoms: _397  and  _398
REMARK  161  A    between atoms: _408  and  _410
REMARK  162  A    between atoms: _410  and  _411
REMARK  163  A    between atoms: _410  and  _413
REMARK  164  A    between atoms: _413  and  _414
REMARK  165  A    between atoms: _414  and  _415
REMARK  166  A    between atoms: _420  and  _422
REMARK  167  A    between atoms: _422  and  _423
REMARK  168  A    between atoms: _422  and  _425
REMARK  169  A    between atoms: _425  and  _426
REMARK  170  A    between atoms: _432  and  _434
REMARK  171  A    between atoms: _434  and  _435
REMARK  172  A    between atoms: _434  and  _437
REMARK  173  A    between atoms: _437  and  _438
REMARK  174  A    between atoms: _438  and  _439
REMARK  175  A    between atoms: _442  and  _444
REMARK  176  A    between atoms: _444  and  _445
REMARK  177  A    between atoms: _444  and  _447
REMARK  178  A    between atoms: _447  and  _448
REMARK                            x       y       z     vdW  Elec       q    Type
REMARK                         _______ _______ _______ _____ _____    ______ ____
ROOT
ATOM      1  CA  THR A   1      25.621   6.941  11.386  0.00  0.00    +0.160 C 
ENDROOT
BRANCH   1   2
ATOM      2  N   THR A   1      25.092   6.912  10.019  0.00  0.00    -0.237 NA
ATOM      3  H   THR A   1      25.765   6.955   9.227  0.00  0.00    +0.142 HD
ENDBRANCH   1   2
BRANCH   1   4
ATOM      4  C   THR A   1      25.877   8.430  11.644  0.00  0.00    +0.227 C 
ATOM      5  O   THR A   1      26.483   9.110  10.764  0.00  0.00    -0.287 OA
ENDBRANCH   1   4
BRANCH   1   6
ATOM      6  CB  THR A   1      26.922   6.110  11.524  0.00  0.00    +0.134 C 
ATOM      7  CG2 THR A   1      27.581   6.328  12.981  0.00  0.00    +0.034 C 
BRANCH   6   8
ATOM      8  OG1 THR A   1      26.608   4.705  11.379  0.00  0.00    -0.383 OA
ATOM      9  HG1 THR A   1      26.206   4.548  10.488  0.00  0.00    +0.210 HD
ENDBRANCH   6   8
ENDBRANCH   1   6
TORSDOF 4
REMARK  Name = ../refined-set-2016/4u1b/4u1b_pocket.pdb
REMARK  178 active torsions:
REMARK  status: ('A' for Active; 'I' for Inactive)
REMARK    1  A    between atoms: _1  and  _3
REMARK    2  A    between atoms: _3  and  _4
REMARK    3  A    between atoms: _3  and  _6
REMARK    4  A    between atoms: _6  and  _7
REMARK    5  A    between atoms: _12  and  _13
REMARK    6  A    between atoms: _15  and  _17
REMARK    7  A    between atoms: _17  and  _18
REMARK    8  A    between atoms: _17  and  _20
REMARK    9  A    between atoms: _20  and  _21
REMARK   10  A    between atoms: _21  and  _22
REMARK   11  A    between atoms: _26  and  _27
REMARK   12  A    between atoms: _32  and  _34
REMARK   13  A    between atoms: _34  and  _35
REMARK   14  A    between atoms: _34  and  _37
REMARK   15  A    between atoms: _37  and  _38
REMARK   16  A    between atoms: _41  and  _42
REMARK   17  A    between atoms: _47  and  _49
REMARK   18  A    between atoms: _49  and  _50
REMARK   19  A    between atoms: _49  and  _52
REMARK   20  A    between atoms: _52  and  _53
REMARK   21  A    between atoms: _56  and  _58
REMARK   22  A    between atoms: _58  and  _59
REMARK   23  A    between atoms: _58  and  _61
REMARK   24  A    between atoms: _61  and  _62
REMARK   25  A    between atoms: _67  and  _69
REMARK   26  A    between atoms: _69  and  _70
REMARK   27  A    between atoms: _69  and  _72
REMARK   28  A    between atoms: _72  and  _73
REMARK   29  A    between atoms: _78  and  _79
REMARK   30  A    between atoms: _81  and  _83
REMARK   31  A    between atoms: _83  and  _84
REMARK   32  A    between atoms: _83  and  _86
REMARK   33  A    between atoms: _86  and  _87
REMARK   34  A    between atoms: _92  and  _93
REMARK   35  A    between atoms: _95  and  _97
REMARK   36  A    between atoms: _97  and  _98
REMARK   37  A    between atoms: _97  and  _100
REMARK   38  A    between atoms: _100  and  _101
REMARK   39  A    between atoms: _106  and  _108
REMARK   40  A    between atoms: _108  and  _109
REMARK   41  A    between atoms: _108  and  _111
REMARK   42  A    between atoms: _111  and  _112
REMARK   43  A    between atoms: _119  and  _120
REMARK   44  A    between atoms: _125  and  _127
REMARK   45  A    between atoms: _127  and  _128
REMARK   46  A    between atoms: _127  and  _130
REMARK   47  A    between atoms: _130  and  _131
REMARK   48  A    between atoms: _131  and  _132
REMARK   49  A    between atoms: _132  and  _133
REMARK   50  A    between atoms: _133  and  _134
REMARK   51  A    between atoms: _138  and  _140
REMARK   52  A    between atoms: _140  and  _141
REMARK   53  A    between atoms: _140  and  _143
REMARK   54  A    between atoms: _143  and  _144
REMARK   55  A    between atoms: _146  and  _148
REMARK   56  A    between atoms: _148  and  _149
REMARK   57  A    between atoms: _148  and  _151
REMARK   58  A    between atoms: _153  and  _155
REMARK   59  A    between atoms: _155  and  _156
REMARK   60  A    between atoms: _155  and  _158
REMARK   61  A    between atoms: _160  and  _162
REMARK   62  A    between atoms: _162  and  _163
REMARK   63  A    between atoms: _162  and  _165
REMARK   64  A    between atoms: _167  and  _169
REMARK   65  A    between atoms: _169  and  _170
REMARK   66  A    between atoms: _169  and  _172
REMARK   67  A    between atoms: _172  and  _173
REMARK   68  A    between atoms: _178  and  _180
REMARK   69  A    between atoms: _180  and  _181
REMARK   70  A    between atoms: _183  and  _185
REMARK   71  A    between atoms: _185  and  _186
REMARK   72  A    between atoms: _185  and  _188
REMARK   73  A    between atoms: _188  and  _189
REMARK   74  A    between atoms: _192  and  _194
REMARK   75  A    between atoms: _194  and  _195
REMARK   76  A    between atoms: _194  and  _197
REMARK   77  A    between atoms: _197  and  _198
REMARK   78  A    between atoms: _203  and  _205
REMARK   79  A    between atoms: _205  and  _206
REMARK   80  A    between atoms: _205  and  _208
REMARK   81  A    between atoms: _211  and  _213
REMARK   82  A    between atoms: _213  and  _214
REMARK   83  A    between atoms: _213  and  _216
REMARK   84  A    between atoms: _216  and  _217
REMARK   85  A    between atoms: _220  and  _222
REMARK   86  A    between atoms: _222  and  _223
REMARK   87  A    between atoms: _222  and  _225
REMARK   88  A    between atoms: _225  and  _226
REMARK   89  A    between atoms: _229  and  _231
REMARK   90  A    between atoms: _231  and  _232
REMARK   91  A    between atoms: _231  and  _234
REMARK   92  A    between atoms: _234  and  _235
REMARK   93  A    between atoms: _238  and  _240
REMARK   94  A    between atoms: _240  and  _241
REMARK   95  A    between atoms: _240  and  _243
REMARK   96  A    between atoms: _243  and  _244
REMARK   97  A    between atoms: _247  and  _249
REMARK   98  A    between atoms: _249  and  _250
REMARK   99  A    between atoms: _252  and  _254
REMARK  100  A    between atoms: _254  and  _255
REMARK  101  A    between atoms: _254  and  _257
REMARK  102  A    between atoms: _261  and  _263
REMARK  103  A    between atoms: _263  and  _264
REMARK  104  A    between atoms: _263  and  _266
REMARK  105  A    between atoms: _266  and  _267
REMARK  106  A    between atoms: _270  and  _272
REMARK  107  A    between atoms: _272  and  _273
REMARK  108  A    between atoms: _272  and  _275
REMARK  109  A    between atoms: _275  and  _276
REMARK  110  A    between atoms: _281  and  _283
REMARK  111  A    between atoms: _283  and  _284
REMARK  112  A    between atoms: _283  and  _286
REMARK  113  A    between atoms: _286  and  _287
REMARK  114  A    between atoms: _292  and  _293
REMARK  115  A    between atoms: _295  and  _297
REMARK  116  A    between atoms: _297  and  _298
REMARK  117  A    between atoms: _297  and  _300
REMARK  118  A    between atoms: _302  and  _304
REMARK  119  A    between atoms: _304  and  _305
REMARK  120  A    between atoms: _307  and  _309
REMARK  121  A    between atoms: _309  and  _310
REMARK  122  A    between atoms: _309  and  _312
REMARK  123  A    between atoms: _312  and  _313
REMARK  124  A    between atoms: _317  and  CO_451
REMARK  125  A    between atoms: _318  and  _320
REMARK  126  A    between atoms: _320  and  _321
REMARK  127  A    between atoms: _323  and  _325
REMARK  128  A    between atoms: _325  and  _326
REMARK  129  A    between atoms: _325  and  _328
REMARK  130  A    between atoms: _328  and  _329
REMARK  131  A    between atoms: _332  and  _334
REMARK  132  A    between atoms: _334  and  _335
REMARK  133  A    between atoms: _334  and  _337
REMARK  134  A    between atoms: _337  and  _338
REMARK  135  A    between atoms: _344  and  _346
REMARK  136  A    between atoms: _346  and  _347
REMARK  137  A    between atoms: _346  and  _349
REMARK  138  A    between atoms: _349  and  _350
REMARK  139  A    between atoms: _355  and  _357
REMARK  140  A    between atoms: _357  and  _358
REMARK  141  A    between atoms: _357  and  _360
REMARK  142  A    between atoms: _360  and  _361
REMARK  143  A    between atoms: _364  and  _366
REMARK  144  A    between atoms: _366  and  _367
REMARK  145  A    between atoms: _366  and  _369
REMARK  146  A    between atoms: _369  and  _370
REMARK  147  A    between atoms: _373  and  _375
REMARK  148  A    between atoms: _375  and  _376
REMARK  149  A    between atoms: _375  and  _378
REMARK  150  A    between atoms: _378  and  _379
REMARK  151  A    between atoms: _379  and  _380
REMARK  152  A    between atoms: _383  and  _385
REMARK  153  A    between atoms: _385  and  _386
REMARK  154  A    between atoms: _385  and  _388
REMARK  155  A    between atoms: _388  and  _389
REMARK  156  A    between atoms: _389  and  _390
REMARK  157  A    between atoms: _392  and  _394
REMARK  158  A    between atoms: _394  and  _395
REMARK  159  A    between atoms: _394  and  _397
REMARK  160  A    between atoms: _397  and  _398
REMARK  161  A    between atoms: _408  and  _410
REMARK  162  A    between atoms: _410  and  _411
REMARK  163  A    between atoms: _410  and  _413
REMARK  164  A    between atoms: _413  and  _414
REMARK  165  A    between atoms: _414  and  _415
REMARK  166  A    between atoms: _420  and  _422
REMARK  167  A    between atoms: _422  and  _423
REMARK  168  A    between atoms: _422  and  _425
REMARK  169  A    between atoms: _425  and  _426
REMARK  170  A    between atoms: _432  and  _434
REMARK  171  A    between atoms: _434  and  _435
REMARK  172  A    between atoms: _434  and  _437
REMARK  173  A    between atoms: _437  and  _438
REMARK  174  A    between atoms: _438  and  _439
REMARK  175  A    between atoms: _442  and  _444
REMARK  176  A    between atoms: _444  and  _445
REMARK  177  A    between atoms: _444  and  _447
REMARK  178  A    between atoms: _447  and  _448
REMARK                            x       y       z     vdW  Elec       q    Type
REMARK                         _______ _______ _______ _____ _____    ______ ____
ROOT
ATOM      1  O   HOH     1      19.322  -4.530   5.939  0.00  0.00    +0.000 OA
ENDROOT
TORSDOF 0
REMARK  Name = ../refined-set-2016/4u1b/4u1b_pocket.pdb
REMARK  178 active torsions:
REMARK  status: ('A' for Active; 'I' for Inactive)
REMARK    1  A    between atoms: _1  and  _3
REMARK    2  A    between atoms: _3  and  _4
REMARK    3  A    between atoms: _3  and  _6
REMARK    4  A    between atoms: _6  and  _7
REMARK    5  A    between atoms: _12  and  _13
REMARK    6  A    between atoms: _15  and  _17
REMARK    7  A    between atoms: _17  and  _18
REMARK    8  A    between atoms: _17  and  _20
REMARK    9  A    between atoms: _20  and  _21
REMARK   10  A    between atoms: _21  and  _22
REMARK   11  A    between atoms: _26  and  _27
REMARK   12  A    between atoms: _32  and  _34
REMARK   13  A    between atoms: _34  and  _35
REMARK   14  A    between atoms: _34  and  _37
REMARK   15  A    between atoms: _37  and  _38
REMARK   16  A    between atoms: _41  and  _42
REMARK   17  A    between atoms: _47  and  _49
REMARK   18  A    between atoms: _49  and  _50
REMARK   19  A    between atoms: _49  and  _52
REMARK   20  A    between atoms: _52  and  _53
REMARK   21  A    between atoms: _56  and  _58
REMARK   22  A    between atoms: _58  and  _59
REMARK   23  A    between atoms: _58  and  _61
REMARK   24  A    between atoms: _61  and  _62
REMARK   25  A    between atoms: _67  and  _69
REMARK   26  A    between atoms: _69  and  _70
REMARK   27  A    between atoms: _69  and  _72
REMARK   28  A    between atoms: _72  and  _73
REMARK   29  A    between atoms: _78  and  _79
REMARK   30  A    between atoms: _81  and  _83
REMARK   31  A    between atoms: _83  and  _84
REMARK   32  A    between atoms: _83  and  _86
REMARK   33  A    between atoms: _86  and  _87
REMARK   34  A    between atoms: _92  and  _93
REMARK   35  A    between atoms: _95  and  _97
REMARK   36  A    between atoms: _97  and  _98
REMARK   37  A    between atoms: _97  and  _100
REMARK   38  A    between atoms: _100  and  _101
REMARK   39  A    between atoms: _106  and  _108
REMARK   40  A    between atoms: _108  and  _109
REMARK   41  A    between atoms: _108  and  _111
REMARK   42  A    between atoms: _111  and  _112
REMARK   43  A    between atoms: _119  and  _120
REMARK   44  A    between atoms: _125  and  _127
REMARK   45  A    between atoms: _127  and  _128
REMARK   46  A    between atoms: _127  and  _130
REMARK   47  A    between atoms: _130  and  _131
REMARK   48  A    between atoms: _131  and  _132
REMARK   49  A    between atoms: _132  and  _133
REMARK   50  A    between atoms: _133  and  _134
REMARK   51  A    between atoms: _138  and  _140
REMARK   52  A    between atoms: _140  and  _141
REMARK   53  A    between atoms: _140  and  _143
REMARK   54  A    between atoms: _143  and  _144
REMARK   55  A    between atoms: _146  and  _148
REMARK   56  A    between atoms: _148  and  _149
REMARK   57  A    between atoms: _148  and  _151
REMARK   58  A    between atoms: _153  and  _155
REMARK   59  A    between atoms: _155  and  _156
REMARK   60  A    between atoms: _155  and  _158
REMARK   61  A    between atoms: _160  and  _162
REMARK   62  A    between atoms: _162  and  _163
REMARK   63  A    between atoms: _162  and  _165
REMARK   64  A    between atoms: _167  and  _169
REMARK   65  A    between atoms: _169  and  _170
REMARK   66  A    between atoms: _169  and  _172
REMARK   67  A    between atoms: _172  and  _173
REMARK   68  A    between atoms: _178  and  _180
REMARK   69  A    between atoms: _180  and  _181
REMARK   70  A    between atoms: _183  and  _185
REMARK   71  A    between atoms: _185  and  _186
REMARK   72  A    between atoms: _185  and  _188
REMARK   73  A    between atoms: _188  and  _189
REMARK   74  A    between atoms: _192  and  _194
REMARK   75  A    between atoms: _194  and  _195
REMARK   76  A    between atoms: _194  and  _197
REMARK   77  A    between atoms: _197  and  _198
REMARK   78  A    between atoms: _203  and  _205
REMARK   79  A    between atoms: _205  and  _206
REMARK   80  A    between atoms: _205  and  _208
REMARK   81  A    between atoms: _211  and  _213
REMARK   82  A    between atoms: _213  and  _214
REMARK   83  A    between atoms: _213  and  _216
REMARK   84  A    between atoms: _216  and  _217
REMARK   85  A    between atoms: _220  and  _222
REMARK   86  A    between atoms: _222  and  _223
REMARK   87  A    between atoms: _222  and  _225
REMARK   88  A    between atoms: _225  and  _226
REMARK   89  A    between atoms: _229  and  _231
REMARK   90  A    between atoms: _231  and  _232
REMARK   91  A    between atoms: _231  and  _234
REMARK   92  A    between atoms: _234  and  _235
REMARK   93  A    between atoms: _238  and  _240
REMARK   94  A    between atoms: _240  and  _241
REMARK   95  A    between atoms: _240  and  _243
REMARK   96  A    between atoms: _243  and  _244
REMARK   97  A    between atoms: _247  and  _249
REMARK   98  A    between atoms: _249  and  _250
REMARK   99  A    between atoms: _252  and  _254
REMARK  100  A    between atoms: _254  and  _255
REMARK  101  A    between atoms: _254  and  _257
REMARK  102  A    between atoms: _261  and  _263
REMARK  103  A    between atoms: _263  and  _264
REMARK  104  A    between atoms: _263  and  _266
REMARK  105  A    between atoms: _266  and  _267
REMARK  106  A    between atoms: _270  and  _272
REMARK  107  A    between atoms: _272  and  _273
REMARK  108  A    between atoms: _272  and  _275
REMARK  109  A    between atoms: _275  and  _276
REMARK  110  A    between atoms: _281  and  _283
REMARK  111  A    between atoms: _283  and  _284
REMARK  112  A    between atoms: _283  and  _286
REMARK  113  A    between atoms: _286  and  _287
REMARK  114  A    between atoms: _292  and  _293
REMARK  115  A    between atoms: _295  and  _297
REMARK  116  A    between atoms: _297  and  _298
REMARK  117  A    between atoms: _297  and  _300
REMARK  118  A    between atoms: _302  and  _304
REMARK  119  A    between atoms: _304  and  _305
REMARK  120  A    between atoms: _307  and  _309
REMARK  121  A    between atoms: _309  and  _310
REMARK  122  A    between atoms: _309  and  _312
REMARK  123  A    between atoms: _312  and  _313
REMARK  124  A    between atoms: _317  and  CO_451
REMARK  125  A    between atoms: _318  and  _320
REMARK  126  A    between atoms: _320  and  _321
REMARK  127  A    between atoms: _323  and  _325
REMARK  128  A    between atoms: _325  and  _326
REMARK  129  A    between atoms: _325  and  _328
REMARK  130  A    between atoms: _328  and  _329
REMARK  131  A    between atoms: _332  and  _334
REMARK  132  A    between atoms: _334  and  _335
REMARK  133  A    between atoms: _334  and  _337
REMARK  134  A    between atoms: _337  and  _338
REMARK  135  A    between atoms: _344  and  _346
REMARK  136  A    between atoms: _346  and  _347
REMARK  137  A    between atoms: _346  and  _349
REMARK  138  A    between atoms: _349  and  _350
REMARK  139  A    between atoms: _355  and  _357
REMARK  140  A    between atoms: _357  and  _358
REMARK  141  A    between atoms: _357  and  _360
REMARK  142  A    between atoms: _360  and  _361
REMARK  143  A    between atoms: _364  and  _366
REMARK  144  A    between atoms: _366  and  _367
REMARK  145  A    between atoms: _366  and  _369
REMARK  146  A    between atoms: _369  and  _370
REMARK  147  A    between atoms: _373  and  _375
REMARK  148  A    between atoms: _375  and  _376
REMARK  149  A    between atoms: _375  and  _378
REMARK  150  A    between atoms: _378  and  _379
REMARK  151  A    between atoms: _379  and  _380
REMARK  152  A    between atoms: _383  and  _385
REMARK  153  A    between atoms: _385  and  _386
REMARK  154  A    between atoms: _385  and  _388
REMARK  155  A    between atoms: _388  and  _389
REMARK  156  A    between atoms: _389  and  _390
REMARK  157  A    between atoms: _392  and  _394
REMARK  158  A    between atoms: _394  and  _395
REMARK  159  A    between atoms: _394  and  _397
REMARK  160  A    between atoms: _397  and  _398
REMARK  161  A    between atoms: _408  and  _410
REMARK  162  A    between atoms: _410  and  _411
REMARK  163  A    between atoms: _410  and  _413
REMARK  164  A    between atoms: _413  and  _414
REMARK  165  A    between atoms: _414  and  _415
REMARK  166  A    between atoms: _420  and  _422
REMARK  167  A    between atoms: _422  and  _423
REMARK  168  A    between atoms: _422  and  _425
REMARK  169  A    between atoms: _425  and  _426
REMARK  170  A    between atoms: _432  and  _434
REMARK  171  A    between atoms: _434  and  _435
REMARK  172  A    between atoms: _434  and  _437
REMARK  173  A    between atoms: _437  and  _438
REMARK  174  A    between atoms: _438  and  _439
REMARK  175  A    between atoms: _442  and  _444
REMARK  176  A    between atoms: _444  and  _445
REMARK  177  A    between atoms: _444  and  _447
REMARK  178  A    between atoms: _447  and  _448
REMARK                            x       y       z     vdW  Elec       q    Type
REMARK                         _______ _______ _______ _____ _____    ______ ____
ROOT
ATOM      1  O   HOH     1      19.630  -4.203   3.086  0.00  0.00    +0.000 OA
ENDROOT
TORSDOF 0
REMARK  Name = ../refined-set-2016/4u1b/4u1b_pocket.pdb
REMARK  178 active torsions:
REMARK  status: ('A' for Active; 'I' for Inactive)
REMARK    1  A    between atoms: _1  and  _3
REMARK    2  A    between atoms: _3  and  _4
REMARK    3  A    between atoms: _3  and  _6
REMARK    4  A    between atoms: _6  and  _7
REMARK    5  A    between atoms: _12  and  _13
REMARK    6  A    between atoms: _15  and  _17
REMARK    7  A    between atoms: _17  and  _18
REMARK    8  A    between atoms: _17  and  _20
REMARK    9  A    between atoms: _20  and  _21
REMARK   10  A    between atoms: _21  and  _22
REMARK   11  A    between atoms: _26  and  _27
REMARK   12  A    between atoms: _32  and  _34
REMARK   13  A    between atoms: _34  and  _35
REMARK   14  A    between atoms: _34  and  _37
REMARK   15  A    between atoms: _37  and  _38
REMARK   16  A    between atoms: _41  and  _42
REMARK   17  A    between atoms: _47  and  _49
REMARK   18  A    between atoms: _49  and  _50
REMARK   19  A    between atoms: _49  and  _52
REMARK   20  A    between atoms: _52  and  _53
REMARK   21  A    between atoms: _56  and  _58
REMARK   22  A    between atoms: _58  and  _59
REMARK   23  A    between atoms: _58  and  _61
REMARK   24  A    between atoms: _61  and  _62
REMARK   25  A    between atoms: _67  and  _69
REMARK   26  A    between atoms: _69  and  _70
REMARK   27  A    between atoms: _69  and  _72
REMARK   28  A    between atoms: _72  and  _73
REMARK   29  A    between atoms: _78  and  _79
REMARK   30  A    between atoms: _81  and  _83
REMARK   31  A    between atoms: _83  and  _84
REMARK   32  A    between atoms: _83  and  _86
REMARK   33  A    between atoms: _86  and  _87
REMARK   34  A    between atoms: _92  and  _93
REMARK   35  A    between atoms: _95  and  _97
REMARK   36  A    between atoms: _97  and  _98
REMARK   37  A    between atoms: _97  and  _100
REMARK   38  A    between atoms: _100  and  _101
REMARK   39  A    between atoms: _106  and  _108
REMARK   40  A    between atoms: _108  and  _109
REMARK   41  A    between atoms: _108  and  _111
REMARK   42  A    between atoms: _111  and  _112
REMARK   43  A    between atoms: _119  and  _120
REMARK   44  A    between atoms: _125  and  _127
REMARK   45  A    between atoms: _127  and  _128
REMARK   46  A    between atoms: _127  and  _130
REMARK   47  A    between atoms: _130  and  _131
REMARK   48  A    between atoms: _131  and  _132
REMARK   49  A    between atoms: _132  and  _133
REMARK   50  A    between atoms: _133  and  _134
REMARK   51  A    between atoms: _138  and  _140
REMARK   52  A    between atoms: _140  and  _141
REMARK   53  A    between atoms: _140  and  _143
REMARK   54  A    between atoms: _143  and  _144
REMARK   55  A    between atoms: _146  and  _148
REMARK   56  A    between atoms: _148  and  _149
REMARK   57  A    between atoms: _148  and  _151
REMARK   58  A    between atoms: _153  and  _155
REMARK   59  A    between atoms: _155  and  _156
REMARK   60  A    between atoms: _155  and  _158
REMARK   61  A    between atoms: _160  and  _162
REMARK   62  A    between atoms: _162  and  _163
REMARK   63  A    between atoms: _162  and  _165
REMARK   64  A    between atoms: _167  and  _169
REMARK   65  A    between atoms: _169  and  _170
REMARK   66  A    between atoms: _169  and  _172
REMARK   67  A    between atoms: _172  and  _173
REMARK   68  A    between atoms: _178  and  _180
REMARK   69  A    between atoms: _180  and  _181
REMARK   70  A    between atoms: _183  and  _185
REMARK   71  A    between atoms: _185  and  _186
REMARK   72  A    between atoms: _185  and  _188
REMARK   73  A    between atoms: _188  and  _189
REMARK   74  A    between atoms: _192  and  _194
REMARK   75  A    between atoms: _194  and  _195
REMARK   76  A    between atoms: _194  and  _197
REMARK   77  A    between atoms: _197  and  _198
REMARK   78  A    between atoms: _203  and  _205
REMARK   79  A    between atoms: _205  and  _206
REMARK   80  A    between atoms: _205  and  _208
REMARK   81  A    between atoms: _211  and  _213
REMARK   82  A    between atoms: _213  and  _214
REMARK   83  A    between atoms: _213  and  _216
REMARK   84  A    between atoms: _216  and  _217
REMARK   85  A    between atoms: _220  and  _222
REMARK   86  A    between atoms: _222  and  _223
REMARK   87  A    between atoms: _222  and  _225
REMARK   88  A    between atoms: _225  and  _226
REMARK   89  A    between atoms: _229  and  _231
REMARK   90  A    between atoms: _231  and  _232
REMARK   91  A    between atoms: _231  and  _234
REMARK   92  A    between atoms: _234  and  _235
REMARK   93  A    between atoms: _238  and  _240
REMARK   94  A    between atoms: _240  and  _241
REMARK   95  A    between atoms: _240  and  _243
REMARK   96  A    between atoms: _243  and  _244
REMARK   97  A    between atoms: _247  and  _249
REMARK   98  A    between atoms: _249  and  _250
REMARK   99  A    between atoms: _252  and  _254
REMARK  100  A    between atoms: _254  and  _255
REMARK  101  A    between atoms: _254  and  _257
REMARK  102  A    between atoms: _261  and  _263
REMARK  103  A    between atoms: _263  and  _264
REMARK  104  A    between atoms: _263  and  _266
REMARK  105  A    between atoms: _266  and  _267
REMARK  106  A    between atoms: _270  and  _272
REMARK  107  A    between atoms: _272  and  _273
REMARK  108  A    between atoms: _272  and  _275
REMARK  109  A    between atoms: _275  and  _276
REMARK  110  A    between atoms: _281  and  _283
REMARK  111  A    between atoms: _283  and  _284
REMARK  112  A    between atoms: _283  and  _286
REMARK  113  A    between atoms: _286  and  _287
REMARK  114  A    between atoms: _292  and  _293
REMARK  115  A    between atoms: _295  and  _297
REMARK  116  A    between atoms: _297  and  _298
REMARK  117  A    between atoms: _297  and  _300
REMARK  118  A    between atoms: _302  and  _304
REMARK  119  A    between atoms: _304  and  _305
REMARK  120  A    between atoms: _307  and  _309
REMARK  121  A    between atoms: _309  and  _310
REMARK  122  A    between atoms: _309  and  _312
REMARK  123  A    between atoms: _312  and  _313
REMARK  124  A    between atoms: _317  and  CO_451
REMARK  125  A    between atoms: _318  and  _320
REMARK  126  A    between atoms: _320  and  _321
REMARK  127  A    between atoms: _323  and  _325
REMARK  128  A    between atoms: _325  and  _326
REMARK  129  A    between atoms: _325  and  _328
REMARK  130  A    between atoms: _328  and  _329
REMARK  131  A    between atoms: _332  and  _334
REMARK  132  A    between atoms: _334  and  _335
REMARK  133  A    between atoms: _334  and  _337
REMARK  134  A    between atoms: _337  and  _338
REMARK  135  A    between atoms: _344  and  _346
REMARK  136  A    between atoms: _346  and  _347
REMARK  137  A    between atoms: _346  and  _349
REMARK  138  A    between atoms: _349  and  _350
REMARK  139  A    between atoms: _355  and  _357
REMARK  140  A    between atoms: _357  and  _358
REMARK  141  A    between atoms: _357  and  _360
REMARK  142  A    between atoms: _360  and  _361
REMARK  143  A    between atoms: _364  and  _366
REMARK  144  A    between atoms: _366  and  _367
REMARK  145  A    between atoms: _366  and  _369
REMARK  146  A    between atoms: _369  and  _370
REMARK  147  A    between atoms: _373  and  _375
REMARK  148  A    between atoms: _375  and  _376
REMARK  149  A    between atoms: _375  and  _378
REMARK  150  A    between atoms: _378  and  _379
REMARK  151  A    between atoms: _379  and  _380
REMARK  152  A    between atoms: _383  and  _385
REMARK  153  A    between atoms: _385  and  _386
REMARK  154  A    between atoms: _385  and  _388
REMARK  155  A    between atoms: _388  and  _389
REMARK  156  A    between atoms: _389  and  _390
REMARK  157  A    between atoms: _392  and  _394
REMARK  158  A    between atoms: _394  and  _395
REMARK  159  A    between atoms: _394  and  _397
REMARK  160  A    between atoms: _397  and  _398
REMARK  161  A    between atoms: _408  and  _410
REMARK  162  A    between atoms: _410  and  _411
REMARK  163  A    between atoms: _410  and  _413
REMARK  164  A    between atoms: _413  and  _414
REMARK  165  A    between atoms: _414  and  _415
REMARK  166  A    between atoms: _420  and  _422
REMARK  167  A    between atoms: _422  and  _423
REMARK  168  A    between atoms: _422  and  _425
REMARK  169  A    between atoms: _425  and  _426
REMARK  170  A    between atoms: _432  and  _434
REMARK  171  A    between atoms: _434  and  _435
REMARK  172  A    between atoms: _434  and  _437
REMARK  173  A    between atoms: _437  and  _438
REMARK  174  A    between atoms: _438  and  _439
REMARK  175  A    between atoms: _442  and  _444
REMARK  176  A    between atoms: _444  and  _445
REMARK  177  A    between atoms: _444  and  _447
REMARK  178  A    between atoms: _447  and  _448
REMARK                            x       y       z     vdW  Elec       q    Type
REMARK                         _______ _______ _______ _____ _____    ______ ____
ROOT
ATOM      1  O   HOH     1      29.482  -4.570   5.244  0.00  0.00    +0.000 OA
ENDROOT
TORSDOF 0
REMARK  Name = ../refined-set-2016/4u1b/4u1b_pocket.pdb
REMARK  178 active torsions:
REMARK  status: ('A' for Active; 'I' for Inactive)
REMARK    1  A    between atoms: _1  and  _3
REMARK    2  A    between atoms: _3  and  _4
REMARK    3  A    between atoms: _3  and  _6
REMARK    4  A    between atoms: _6  and  _7
REMARK    5  A    between atoms: _12  and  _13
REMARK    6  A    between atoms: _15  and  _17
REMARK    7  A    between atoms: _17  and  _18
REMARK    8  A    between atoms: _17  and  _20
REMARK    9  A    between atoms: _20  and  _21
REMARK   10  A    between atoms: _21  and  _22
REMARK   11  A    between atoms: _26  and  _27
REMARK   12  A    between atoms: _32  and  _34
REMARK   13  A    between atoms: _34  and  _35
REMARK   14  A    between atoms: _34  and  _37
REMARK   15  A    between atoms: _37  and  _38
REMARK   16  A    between atoms: _41  and  _42
REMARK   17  A    between atoms: _47  and  _49
REMARK   18  A    between atoms: _49  and  _50
REMARK   19  A    between atoms: _49  and  _52
REMARK   20  A    between atoms: _52  and  _53
REMARK   21  A    between atoms: _56  and  _58
REMARK   22  A    between atoms: _58  and  _59
REMARK   23  A    between atoms: _58  and  _61
REMARK   24  A    between atoms: _61  and  _62
REMARK   25  A    between atoms: _67  and  _69
REMARK   26  A    between atoms: _69  and  _70
REMARK   27  A    between atoms: _69  and  _72
REMARK   28  A    between atoms: _72  and  _73
REMARK   29  A    between atoms: _78  and  _79
REMARK   30  A    between atoms: _81  and  _83
REMARK   31  A    between atoms: _83  and  _84
REMARK   32  A    between atoms: _83  and  _86
REMARK   33  A    between atoms: _86  and  _87
REMARK   34  A    between atoms: _92  and  _93
REMARK   35  A    between atoms: _95  and  _97
REMARK   36  A    between atoms: _97  and  _98
REMARK   37  A    between atoms: _97  and  _100
REMARK   38  A    between atoms: _100  and  _101
REMARK   39  A    between atoms: _106  and  _108
REMARK   40  A    between atoms: _108  and  _109
REMARK   41  A    between atoms: _108  and  _111
REMARK   42  A    between atoms: _111  and  _112
REMARK   43  A    between atoms: _119  and  _120
REMARK   44  A    between atoms: _125  and  _127
REMARK   45  A    between atoms: _127  and  _128
REMARK   46  A    between atoms: _127  and  _130
REMARK   47  A    between atoms: _130  and  _131
REMARK   48  A    between atoms: _131  and  _132
REMARK   49  A    between atoms: _132  and  _133
REMARK   50  A    between atoms: _133  and  _134
REMARK   51  A    between atoms: _138  and  _140
REMARK   52  A    between atoms: _140  and  _141
REMARK   53  A    between atoms: _140  and  _143
REMARK   54  A    between atoms: _143  and  _144
REMARK   55  A    between atoms: _146  and  _148
REMARK   56  A    between atoms: _148  and  _149
REMARK   57  A    between atoms: _148  and  _151
REMARK   58  A    between atoms: _153  and  _155
REMARK   59  A    between atoms: _155  and  _156
REMARK   60  A    between atoms: _155  and  _158
REMARK   61  A    between atoms: _160  and  _162
REMARK   62  A    between atoms: _162  and  _163
REMARK   63  A    between atoms: _162  and  _165
REMARK   64  A    between atoms: _167  and  _169
REMARK   65  A    between atoms: _169  and  _170
REMARK   66  A    between atoms: _169  and  _172
REMARK   67  A    between atoms: _172  and  _173
REMARK   68  A    between atoms: _178  and  _180
REMARK   69  A    between atoms: _180  and  _181
REMARK   70  A    between atoms: _183  and  _185
REMARK   71  A    between atoms: _185  and  _186
REMARK   72  A    between atoms: _185  and  _188
REMARK   73  A    between atoms: _188  and  _189
REMARK   74  A    between atoms: _192  and  _194
REMARK   75  A    between atoms: _194  and  _195
REMARK   76  A    between atoms: _194  and  _197
REMARK   77  A    between atoms: _197  and  _198
REMARK   78  A    between atoms: _203  and  _205
REMARK   79  A    between atoms: _205  and  _206
REMARK   80  A    between atoms: _205  and  _208
REMARK   81  A    between atoms: _211  and  _213
REMARK   82  A    between atoms: _213  and  _214
REMARK   83  A    between atoms: _213  and  _216
REMARK   84  A    between atoms: _216  and  _217
REMARK   85  A    between atoms: _220  and  _222
REMARK   86  A    between atoms: _222  and  _223
REMARK   87  A    between atoms: _222  and  _225
REMARK   88  A    between atoms: _225  and  _226
REMARK   89  A    between atoms: _229  and  _231
REMARK   90  A    between atoms: _231  and  _232
REMARK   91  A    between atoms: _231  and  _234
REMARK   92  A    between atoms: _234  and  _235
REMARK   93  A    between atoms: _238  and  _240
REMARK   94  A    between atoms: _240  and  _241
REMARK   95  A    between atoms: _240  and  _243
REMARK   96  A    between atoms: _243  and  _244
REMARK   97  A    between atoms: _247  and  _249
REMARK   98  A    between atoms: _249  and  _250
REMARK   99  A    between atoms: _252  and  _254
REMARK  100  A    between atoms: _254  and  _255
REMARK  101  A    between atoms: _254  and  _257
REMARK  102  A    between atoms: _261  and  _263
REMARK  103  A    between atoms: _263  and  _264
REMARK  104  A    between atoms: _263  and  _266
REMARK  105  A    between atoms: _266  and  _267
REMARK  106  A    between atoms: _270  and  _272
REMARK  107  A    between atoms: _272  and  _273
REMARK  108  A    between atoms: _272  and  _275
REMARK  109  A    between atoms: _275  and  _276
REMARK  110  A    between atoms: _281  and  _283
REMARK  111  A    between atoms: _283  and  _284
REMARK  112  A    between atoms: _283  and  _286
REMARK  113  A    between atoms: _286  and  _287
REMARK  114  A    between atoms: _292  and  _293
REMARK  115  A    between atoms: _295  and  _297
REMARK  116  A    between atoms: _297  and  _298
REMARK  117  A    between atoms: _297  and  _300
REMARK  118  A    between atoms: _302  and  _304
REMARK  119  A    between atoms: _304  and  _305
REMARK  120  A    between atoms: _307  and  _309
REMARK  121  A    between atoms: _309  and  _310
REMARK  122  A    between atoms: _309  and  _312
REMARK  123  A    between atoms: _312  and  _313
REMARK  124  A    between atoms: _317  and  CO_451
REMARK  125  A    between atoms: _318  and  _320
REMARK  126  A    between atoms: _320  and  _321
REMARK  127  A    between atoms: _323  and  _325
REMARK  128  A    between atoms: _325  and  _326
REMARK  129  A    between atoms: _325  and  _328
REMARK  130  A    between atoms: _328  and  _329
REMARK  131  A    between atoms: _332  and  _334
REMARK  132  A    between atoms: _334  and  _335
REMARK  133  A    between atoms: _334  and  _337
REMARK  134  A    between atoms: _337  and  _338
REMARK  135  A    between atoms: _344  and  _346
REMARK  136  A    between atoms: _346  and  _347
REMARK  137  A    between atoms: _346  and  _349
REMARK  138  A    between atoms: _349  and  _350
REMARK  139  A    between atoms: _355  and  _357
REMARK  140  A    between atoms: _357  and  _358
REMARK  141  A    between atoms: _357  and  _360
REMARK  142  A    between atoms: _360  and  _361
REMARK  143  A    between atoms: _364  and  _366
REMARK  144  A    between atoms: _366  and  _367
REMARK  145  A    between atoms: _366  and  _369
REMARK  146  A    between atoms: _369  and  _370
REMARK  147  A    between atoms: _373  and  _375
REMARK  148  A    between atoms: _375  and  _376
REMARK  149  A    between atoms: _375  and  _378
REMARK  150  A    between atoms: _378  and  _379
REMARK  151  A    between atoms: _379  and  _380
REMARK  152  A    between atoms: _383  and  _385
REMARK  153  A    between atoms: _385  and  _386
REMARK  154  A    between atoms: _385  and  _388
REMARK  155  A    between atoms: _388  and  _389
REMARK  156  A    between atoms: _389  and  _390
REMARK  157  A    between atoms: _392  and  _394
REMARK  158  A    between atoms: _394  and  _395
REMARK  159  A    between atoms: _394  and  _397
REMARK  160  A    between atoms: _397  and  _398
REMARK  161  A    between atoms: _408  and  _410
REMARK  162  A    between atoms: _410  and  _411
REMARK  163  A    between atoms: _410  and  _413
REMARK  164  A    between atoms: _413  and  _414
REMARK  165  A    between atoms: _414  and  _415
REMARK  166  A    between atoms: _420  and  _422
REMARK  167  A    between atoms: _422  and  _423
REMARK  168  A    between atoms: _422  and  _425
REMARK  169  A    between atoms: _425  and  _426
REMARK  170  A    between atoms: _432  and  _434
REMARK  171  A    between atoms: _434  and  _435
REMARK  172  A    between atoms: _434  and  _437
REMARK  173  A    between atoms: _437  and  _438
REMARK  174  A    between atoms: _438  and  _439
REMARK  175  A    between atoms: _442  and  _444
REMARK  176  A    between atoms: _444  and  _445
REMARK  177  A    between atoms: _444  and  _447
REMARK  178  A    between atoms: _447  and  _448
REMARK                            x       y       z     vdW  Elec       q    Type
REMARK                         _______ _______ _______ _____ _____    ______ ____
ROOT
ATOM      1  O   HOH     1      15.970  -9.467  10.835  0.00  0.00    +0.000 OA
ENDROOT
TORSDOF 0
REMARK  Name = ../refined-set-2016/4u1b/4u1b_pocket.pdb
REMARK  178 active torsions:
REMARK  status: ('A' for Active; 'I' for Inactive)
REMARK    1  A    between atoms: _1  and  _3
REMARK    2  A    between atoms: _3  and  _4
REMARK    3  A    between atoms: _3  and  _6
REMARK    4  A    between atoms: _6  and  _7
REMARK    5  A    between atoms: _12  and  _13
REMARK    6  A    between atoms: _15  and  _17
REMARK    7  A    between atoms: _17  and  _18
REMARK    8  A    between atoms: _17  and  _20
REMARK    9  A    between atoms: _20  and  _21
REMARK   10  A    between atoms: _21  and  _22
REMARK   11  A    between atoms: _26  and  _27
REMARK   12  A    between atoms: _32  and  _34
REMARK   13  A    between atoms: _34  and  _35
REMARK   14  A    between atoms: _34  and  _37
REMARK   15  A    between atoms: _37  and  _38
REMARK   16  A    between atoms: _41  and  _42
REMARK   17  A    between atoms: _47  and  _49
REMARK   18  A    between atoms: _49  and  _50
REMARK   19  A    between atoms: _49  and  _52
REMARK   20  A    between atoms: _52  and  _53
REMARK   21  A    between atoms: _56  and  _58
REMARK   22  A    between atoms: _58  and  _59
REMARK   23  A    between atoms: _58  and  _61
REMARK   24  A    between atoms: _61  and  _62
REMARK   25  A    between atoms: _67  and  _69
REMARK   26  A    between atoms: _69  and  _70
REMARK   27  A    between atoms: _69  and  _72
REMARK   28  A    between atoms: _72  and  _73
REMARK   29  A    between atoms: _78  and  _79
REMARK   30  A    between atoms: _81  and  _83
REMARK   31  A    between atoms: _83  and  _84
REMARK   32  A    between atoms: _83  and  _86
REMARK   33  A    between atoms: _86  and  _87
REMARK   34  A    between atoms: _92  and  _93
REMARK   35  A    between atoms: _95  and  _97
REMARK   36  A    between atoms: _97  and  _98
REMARK   37  A    between atoms: _97  and  _100
REMARK   38  A    between atoms: _100  and  _101
REMARK   39  A    between atoms: _106  and  _108
REMARK   40  A    between atoms: _108  and  _109
REMARK   41  A    between atoms: _108  and  _111
REMARK   42  A    between atoms: _111  and  _112
REMARK   43  A    between atoms: _119  and  _120
REMARK   44  A    between atoms: _125  and  _127
REMARK   45  A    between atoms: _127  and  _128
REMARK   46  A    between atoms: _127  and  _130
REMARK   47  A    between atoms: _130  and  _131
REMARK   48  A    between atoms: _131  and  _132
REMARK   49  A    between atoms: _132  and  _133
REMARK   50  A    between atoms: _133  and  _134
REMARK   51  A    between atoms: _138  and  _140
REMARK   52  A    between atoms: _140  and  _141
REMARK   53  A    between atoms: _140  and  _143
REMARK   54  A    between atoms: _143  and  _144
REMARK   55  A    between atoms: _146  and  _148
REMARK   56  A    between atoms: _148  and  _149
REMARK   57  A    between atoms: _148  and  _151
REMARK   58  A    between atoms: _153  and  _155
REMARK   59  A    between atoms: _155  and  _156
REMARK   60  A    between atoms: _155  and  _158
REMARK   61  A    between atoms: _160  and  _162
REMARK   62  A    between atoms: _162  and  _163
REMARK   63  A    between atoms: _162  and  _165
REMARK   64  A    between atoms: _167  and  _169
REMARK   65  A    between atoms: _169  and  _170
REMARK   66  A    between atoms: _169  and  _172
REMARK   67  A    between atoms: _172  and  _173
REMARK   68  A    between atoms: _178  and  _180
REMARK   69  A    between atoms: _180  and  _181
REMARK   70  A    between atoms: _183  and  _185
REMARK   71  A    between atoms: _185  and  _186
REMARK   72  A    between atoms: _185  and  _188
REMARK   73  A    between atoms: _188  and  _189
REMARK   74  A    between atoms: _192  and  _194
REMARK   75  A    between atoms: _194  and  _195
REMARK   76  A    between atoms: _194  and  _197
REMARK   77  A    between atoms: _197  and  _198
REMARK   78  A    between atoms: _203  and  _205
REMARK   79  A    between atoms: _205  and  _206
REMARK   80  A    between atoms: _205  and  _208
REMARK   81  A    between atoms: _211  and  _213
REMARK   82  A    between atoms: _213  and  _214
REMARK   83  A    between atoms: _213  and  _216
REMARK   84  A    between atoms: _216  and  _217
REMARK   85  A    between atoms: _220  and  _222
REMARK   86  A    between atoms: _222  and  _223
REMARK   87  A    between atoms: _222  and  _225
REMARK   88  A    between atoms: _225  and  _226
REMARK   89  A    between atoms: _229  and  _231
REMARK   90  A    between atoms: _231  and  _232
REMARK   91  A    between atoms: _231  and  _234
REMARK   92  A    between atoms: _234  and  _235
REMARK   93  A    between atoms: _238  and  _240
REMARK   94  A    between atoms: _240  and  _241
REMARK   95  A    between atoms: _240  and  _243
REMARK   96  A    between atoms: _243  and  _244
REMARK   97  A    between atoms: _247  and  _249
REMARK   98  A    between atoms: _249  and  _250
REMARK   99  A    between atoms: _252  and  _254
REMARK  100  A    between atoms: _254  and  _255
REMARK  101  A    between atoms: _254  and  _257
REMARK  102  A    between atoms: _261  and  _263
REMARK  103  A    between atoms: _263  and  _264
REMARK  104  A    between atoms: _263  and  _266
REMARK  105  A    between atoms: _266  and  _267
REMARK  106  A    between atoms: _270  and  _272
REMARK  107  A    between atoms: _272  and  _273
REMARK  108  A    between atoms: _272  and  _275
REMARK  109  A    between atoms: _275  and  _276
REMARK  110  A    between atoms: _281  and  _283
REMARK  111  A    between atoms: _283  and  _284
REMARK  112  A    between atoms: _283  and  _286
REMARK  113  A    between atoms: _286  and  _287
REMARK  114  A    between atoms: _292  and  _293
REMARK  115  A    between atoms: _295  and  _297
REMARK  116  A    between atoms: _297  and  _298
REMARK  117  A    between atoms: _297  and  _300
REMARK  118  A    between atoms: _302  and  _304
REMARK  119  A    between atoms: _304  and  _305
REMARK  120  A    between atoms: _307  and  _309
REMARK  121  A    between atoms: _309  and  _310
REMARK  122  A    between atoms: _309  and  _312
REMARK  123  A    between atoms: _312  and  _313
REMARK  124  A    between atoms: _317  and  CO_451
REMARK  125  A    between atoms: _318  and  _320
REMARK  126  A    between atoms: _320  and  _321
REMARK  127  A    between atoms: _323  and  _325
REMARK  128  A    between atoms: _325  and  _326
REMARK  129  A    between atoms: _325  and  _328
REMARK  130  A    between atoms: _328  and  _329
REMARK  131  A    between atoms: _332  and  _334
REMARK  132  A    between atoms: _334  and  _335
REMARK  133  A    between atoms: _334  and  _337
REMARK  134  A    between atoms: _337  and  _338
REMARK  135  A    between atoms: _344  and  _346
REMARK  136  A    between atoms: _346  and  _347
REMARK  137  A    between atoms: _346  and  _349
REMARK  138  A    between atoms: _349  and  _350
REMARK  139  A    between atoms: _355  and  _357
REMARK  140  A    between atoms: _357  and  _358
REMARK  141  A    between atoms: _357  and  _360
REMARK  142  A    between atoms: _360  and  _361
REMARK  143  A    between atoms: _364  and  _366
REMARK  144  A    between atoms: _366  and  _367
REMARK  145  A    between atoms: _366  and  _369
REMARK  146  A    between atoms: _369  and  _370
REMARK  147  A    between atoms: _373  and  _375
REMARK  148  A    between atoms: _375  and  _376
REMARK  149  A    between atoms: _375  and  _378
REMARK  150  A    between atoms: _378  and  _379
REMARK  151  A    between atoms: _379  and  _380
REMARK  152  A    between atoms: _383  and  _385
REMARK  153  A    between atoms: _385  and  _386
REMARK  154  A    between atoms: _385  and  _388
REMARK  155  A    between atoms: _388  and  _389
REMARK  156  A    between atoms: _389  and  _390
REMARK  157  A    between atoms: _392  and  _394
REMARK  158  A    between atoms: _394  and  _395
REMARK  159  A    between atoms: _394  and  _397
REMARK  160  A    between atoms: _397  and  _398
REMARK  161  A    between atoms: _408  and  _410
REMARK  162  A    between atoms: _410  and  _411
REMARK  163  A    between atoms: _410  and  _413
REMARK  164  A    between atoms: _413  and  _414
REMARK  165  A    between atoms: _414  and  _415
REMARK  166  A    between atoms: _420  and  _422
REMARK  167  A    between atoms: _422  and  _423
REMARK  168  A    between atoms: _422  and  _425
REMARK  169  A    between atoms: _425  and  _426
REMARK  170  A    between atoms: _432  and  _434
REMARK  171  A    between atoms: _434  and  _435
REMARK  172  A    between atoms: _434  and  _437
REMARK  173  A    between atoms: _437  and  _438
REMARK  174  A    between atoms: _438  and  _439
REMARK  175  A    between atoms: _442  and  _444
REMARK  176  A    between atoms: _444  and  _445
REMARK  177  A    between atoms: _444  and  _447
REMARK  178  A    between atoms: _447  and  _448
REMARK                            x       y       z     vdW  Elec       q    Type
REMARK                         _______ _______ _______ _____ _____    ______ ____
ROOT
ATOM      1  O   HOH     1      16.649  -2.410   3.716  0.00  0.00    +0.000 OA
ENDROOT
TORSDOF 0
REMARK  Name = ../refined-set-2016/4u1b/4u1b_pocket.pdb
REMARK  178 active torsions:
REMARK  status: ('A' for Active; 'I' for Inactive)
REMARK    1  A    between atoms: _1  and  _3
REMARK    2  A    between atoms: _3  and  _4
REMARK    3  A    between atoms: _3  and  _6
REMARK    4  A    between atoms: _6  and  _7
REMARK    5  A    between atoms: _12  and  _13
REMARK    6  A    between atoms: _15  and  _17
REMARK    7  A    between atoms: _17  and  _18
REMARK    8  A    between atoms: _17  and  _20
REMARK    9  A    between atoms: _20  and  _21
REMARK   10  A    between atoms: _21  and  _22
REMARK   11  A    between atoms: _26  and  _27
REMARK   12  A    between atoms: _32  and  _34
REMARK   13  A    between atoms: _34  and  _35
REMARK   14  A    between atoms: _34  and  _37
REMARK   15  A    between atoms: _37  and  _38
REMARK   16  A    between atoms: _41  and  _42
REMARK   17  A    between atoms: _47  and  _49
REMARK   18  A    between atoms: _49  and  _50
REMARK   19  A    between atoms: _49  and  _52
REMARK   20  A    between atoms: _52  and  _53
REMARK   21  A    between atoms: _56  and  _58
REMARK   22  A    between atoms: _58  and  _59
REMARK   23  A    between atoms: _58  and  _61
REMARK   24  A    between atoms: _61  and  _62
REMARK   25  A    between atoms: _67  and  _69
REMARK   26  A    between atoms: _69  and  _70
REMARK   27  A    between atoms: _69  and  _72
REMARK   28  A    between atoms: _72  and  _73
REMARK   29  A    between atoms: _78  and  _79
REMARK   30  A    between atoms: _81  and  _83
REMARK   31  A    between atoms: _83  and  _84
REMARK   32  A    between atoms: _83  and  _86
REMARK   33  A    between atoms: _86  and  _87
REMARK   34  A    between atoms: _92  and  _93
REMARK   35  A    between atoms: _95  and  _97
REMARK   36  A    between atoms: _97  and  _98
REMARK   37  A    between atoms: _97  and  _100
REMARK   38  A    between atoms: _100  and  _101
REMARK   39  A    between atoms: _106  and  _108
REMARK   40  A    between atoms: _108  and  _109
REMARK   41  A    between atoms: _108  and  _111
REMARK   42  A    between atoms: _111  and  _112
REMARK   43  A    between atoms: _119  and  _120
REMARK   44  A    between atoms: _125  and  _127
REMARK   45  A    between atoms: _127  and  _128
REMARK   46  A    between atoms: _127  and  _130
REMARK   47  A    between atoms: _130  and  _131
REMARK   48  A    between atoms: _131  and  _132
REMARK   49  A    between atoms: _132  and  _133
REMARK   50  A    between atoms: _133  and  _134
REMARK   51  A    between atoms: _138  and  _140
REMARK   52  A    between atoms: _140  and  _141
REMARK   53  A    between atoms: _140  and  _143
REMARK   54  A    between atoms: _143  and  _144
REMARK   55  A    between atoms: _146  and  _148
REMARK   56  A    between atoms: _148  and  _149
REMARK   57  A    between atoms: _148  and  _151
REMARK   58  A    between atoms: _153  and  _155
REMARK   59  A    between atoms: _155  and  _156
REMARK   60  A    between atoms: _155  and  _158
REMARK   61  A    between atoms: _160  and  _162
REMARK   62  A    between atoms: _162  and  _163
REMARK   63  A    between atoms: _162  and  _165
REMARK   64  A    between atoms: _167  and  _169
REMARK   65  A    between atoms: _169  and  _170
REMARK   66  A    between atoms: _169  and  _172
REMARK   67  A    between atoms: _172  and  _173
REMARK   68  A    between atoms: _178  and  _180
REMARK   69  A    between atoms: _180  and  _181
REMARK   70  A    between atoms: _183  and  _185
REMARK   71  A    between atoms: _185  and  _186
REMARK   72  A    between atoms: _185  and  _188
REMARK   73  A    between atoms: _188  and  _189
REMARK   74  A    between atoms: _192  and  _194
REMARK   75  A    between atoms: _194  and  _195
REMARK   76  A    between atoms: _194  and  _197
REMARK   77  A    between atoms: _197  and  _198
REMARK   78  A    between atoms: _203  and  _205
REMARK   79  A    between atoms: _205  and  _206
REMARK   80  A    between atoms: _205  and  _208
REMARK   81  A    between atoms: _211  and  _213
REMARK   82  A    between atoms: _213  and  _214
REMARK   83  A    between atoms: _213  and  _216
REMARK   84  A    between atoms: _216  and  _217
REMARK   85  A    between atoms: _220  and  _222
REMARK   86  A    between atoms: _222  and  _223
REMARK   87  A    between atoms: _222  and  _225
REMARK   88  A    between atoms: _225  and  _226
REMARK   89  A    between atoms: _229  and  _231
REMARK   90  A    between atoms: _231  and  _232
REMARK   91  A    between atoms: _231  and  _234
REMARK   92  A    between atoms: _234  and  _235
REMARK   93  A    between atoms: _238  and  _240
REMARK   94  A    between atoms: _240  and  _241
REMARK   95  A    between atoms: _240  and  _243
REMARK   96  A    between atoms: _243  and  _244
REMARK   97  A    between atoms: _247  and  _249
REMARK   98  A    between atoms: _249  and  _250
REMARK   99  A    between atoms: _252  and  _254
REMARK  100  A    between atoms: _254  and  _255
REMARK  101  A    between atoms: _254  and  _257
REMARK  102  A    between atoms: _261  and  _263
REMARK  103  A    between atoms: _263  and  _264
REMARK  104  A    between atoms: _263  and  _266
REMARK  105  A    between atoms: _266  and  _267
REMARK  106  A    between atoms: _270  and  _272
REMARK  107  A    between atoms: _272  and  _273
REMARK  108  A    between atoms: _272  and  _275
REMARK  109  A    between atoms: _275  and  _276
REMARK  110  A    between atoms: _281  and  _283
REMARK  111  A    between atoms: _283  and  _284
REMARK  112  A    between atoms: _283  and  _286
REMARK  113  A    between atoms: _286  and  _287
REMARK  114  A    between atoms: _292  and  _293
REMARK  115  A    between atoms: _295  and  _297
REMARK  116  A    between atoms: _297  and  _298
REMARK  117  A    between atoms: _297  and  _300
REMARK  118  A    between atoms: _302  and  _304
REMARK  119  A    between atoms: _304  and  _305
REMARK  120  A    between atoms: _307  and  _309
REMARK  121  A    between atoms: _309  and  _310
REMARK  122  A    between atoms: _309  and  _312
REMARK  123  A    between atoms: _312  and  _313
REMARK  124  A    between atoms: _317  and  CO_451
REMARK  125  A    between atoms: _318  and  _320
REMARK  126  A    between atoms: _320  and  _321
REMARK  127  A    between atoms: _323  and  _325
REMARK  128  A    between atoms: _325  and  _326
REMARK  129  A    between atoms: _325  and  _328
REMARK  130  A    between atoms: _328  and  _329
REMARK  131  A    between atoms: _332  and  _334
REMARK  132  A    between atoms: _334  and  _335
REMARK  133  A    between atoms: _334  and  _337
REMARK  134  A    between atoms: _337  and  _338
REMARK  135  A    between atoms: _344  and  _346
REMARK  136  A    between atoms: _346  and  _347
REMARK  137  A    between atoms: _346  and  _349
REMARK  138  A    between atoms: _349  and  _350
REMARK  139  A    between atoms: _355  and  _357
REMARK  140  A    between atoms: _357  and  _358
REMARK  141  A    between atoms: _357  and  _360
REMARK  142  A    between atoms: _360  and  _361
REMARK  143  A    between atoms: _364  and  _366
REMARK  144  A    between atoms: _366  and  _367
REMARK  145  A    between atoms: _366  and  _369
REMARK  146  A    between atoms: _369  and  _370
REMARK  147  A    between atoms: _373  and  _375
REMARK  148  A    between atoms: _375  and  _376
REMARK  149  A    between atoms: _375  and  _378
REMARK  150  A    between atoms: _378  and  _379
REMARK  151  A    between atoms: _379  and  _380
REMARK  152  A    between atoms: _383  and  _385
REMARK  153  A    between atoms: _385  and  _386
REMARK  154  A    between atoms: _385  and  _388
REMARK  155  A    between atoms: _388  and  _389
REMARK  156  A    between atoms: _389  and  _390
REMARK  157  A    between atoms: _392  and  _394
REMARK  158  A    between atoms: _394  and  _395
REMARK  159  A    between atoms: _394  and  _397
REMARK  160  A    between atoms: _397  and  _398
REMARK  161  A    between atoms: _408  and  _410
REMARK  162  A    between atoms: _410  and  _411
REMARK  163  A    between atoms: _410  and  _413
REMARK  164  A    between atoms: _413  and  _414
REMARK  165  A    between atoms: _414  and  _415
REMARK  166  A    between atoms: _420  and  _422
REMARK  167  A    between atoms: _422  and  _423
REMARK  168  A    between atoms: _422  and  _425
REMARK  169  A    between atoms: _425  and  _426
REMARK  170  A    between atoms: _432  and  _434
REMARK  171  A    between atoms: _434  and  _435
REMARK  172  A    between atoms: _434  and  _437
REMARK  173  A    between atoms: _437  and  _438
REMARK  174  A    between atoms: _438  and  _439
REMARK  175  A    between atoms: _442  and  _444
REMARK  176  A    between atoms: _444  and  _445
REMARK  177  A    between atoms: _444  and  _447
REMARK  178  A    between atoms: _447  and  _448
REMARK                            x       y       z     vdW  Elec       q    Type
REMARK                         _______ _______ _______ _____ _____    ______ ____
ROOT
ATOM      1  O   HOH     1      18.982  -2.631   7.470  0.00  0.00    +0.000 OA
ENDROOT
TORSDOF 0
REMARK  Name = ../refined-set-2016/4u1b/4u1b_pocket.pdb
REMARK  178 active torsions:
REMARK  status: ('A' for Active; 'I' for Inactive)
REMARK    1  A    between atoms: _1  and  _3
REMARK    2  A    between atoms: _3  and  _4
REMARK    3  A    between atoms: _3  and  _6
REMARK    4  A    between atoms: _6  and  _7
REMARK    5  A    between atoms: _12  and  _13
REMARK    6  A    between atoms: _15  and  _17
REMARK    7  A    between atoms: _17  and  _18
REMARK    8  A    between atoms: _17  and  _20
REMARK    9  A    between atoms: _20  and  _21
REMARK   10  A    between atoms: _21  and  _22
REMARK   11  A    between atoms: _26  and  _27
REMARK   12  A    between atoms: _32  and  _34
REMARK   13  A    between atoms: _34  and  _35
REMARK   14  A    between atoms: _34  and  _37
REMARK   15  A    between atoms: _37  and  _38
REMARK   16  A    between atoms: _41  and  _42
REMARK   17  A    between atoms: _47  and  _49
REMARK   18  A    between atoms: _49  and  _50
REMARK   19  A    between atoms: _49  and  _52
REMARK   20  A    between atoms: _52  and  _53
REMARK   21  A    between atoms: _56  and  _58
REMARK   22  A    between atoms: _58  and  _59
REMARK   23  A    between atoms: _58  and  _61
REMARK   24  A    between atoms: _61  and  _62
REMARK   25  A    between atoms: _67  and  _69
REMARK   26  A    between atoms: _69  and  _70
REMARK   27  A    between atoms: _69  and  _72
REMARK   28  A    between atoms: _72  and  _73
REMARK   29  A    between atoms: _78  and  _79
REMARK   30  A    between atoms: _81  and  _83
REMARK   31  A    between atoms: _83  and  _84
REMARK   32  A    between atoms: _83  and  _86
REMARK   33  A    between atoms: _86  and  _87
REMARK   34  A    between atoms: _92  and  _93
REMARK   35  A    between atoms: _95  and  _97
REMARK   36  A    between atoms: _97  and  _98
REMARK   37  A    between atoms: _97  and  _100
REMARK   38  A    between atoms: _100  and  _101
REMARK   39  A    between atoms: _106  and  _108
REMARK   40  A    between atoms: _108  and  _109
REMARK   41  A    between atoms: _108  and  _111
REMARK   42  A    between atoms: _111  and  _112
REMARK   43  A    between atoms: _119  and  _120
REMARK   44  A    between atoms: _125  and  _127
REMARK   45  A    between atoms: _127  and  _128
REMARK   46  A    between atoms: _127  and  _130
REMARK   47  A    between atoms: _130  and  _131
REMARK   48  A    between atoms: _131  and  _132
REMARK   49  A    between atoms: _132  and  _133
REMARK   50  A    between atoms: _133  and  _134
REMARK   51  A    between atoms: _138  and  _140
REMARK   52  A    between atoms: _140  and  _141
REMARK   53  A    between atoms: _140  and  _143
REMARK   54  A    between atoms: _143  and  _144
REMARK   55  A    between atoms: _146  and  _148
REMARK   56  A    between atoms: _148  and  _149
REMARK   57  A    between atoms: _148  and  _151
REMARK   58  A    between atoms: _153  and  _155
REMARK   59  A    between atoms: _155  and  _156
REMARK   60  A    between atoms: _155  and  _158
REMARK   61  A    between atoms: _160  and  _162
REMARK   62  A    between atoms: _162  and  _163
REMARK   63  A    between atoms: _162  and  _165
REMARK   64  A    between atoms: _167  and  _169
REMARK   65  A    between atoms: _169  and  _170
REMARK   66  A    between atoms: _169  and  _172
REMARK   67  A    between atoms: _172  and  _173
REMARK   68  A    between atoms: _178  and  _180
REMARK   69  A    between atoms: _180  and  _181
REMARK   70  A    between atoms: _183  and  _185
REMARK   71  A    between atoms: _185  and  _186
REMARK   72  A    between atoms: _185  and  _188
REMARK   73  A    between atoms: _188  and  _189
REMARK   74  A    between atoms: _192  and  _194
REMARK   75  A    between atoms: _194  and  _195
REMARK   76  A    between atoms: _194  and  _197
REMARK   77  A    between atoms: _197  and  _198
REMARK   78  A    between atoms: _203  and  _205
REMARK   79  A    between atoms: _205  and  _206
REMARK   80  A    between atoms: _205  and  _208
REMARK   81  A    between atoms: _211  and  _213
REMARK   82  A    between atoms: _213  and  _214
REMARK   83  A    between atoms: _213  and  _216
REMARK   84  A    between atoms: _216  and  _217
REMARK   85  A    between atoms: _220  and  _222
REMARK   86  A    between atoms: _222  and  _223
REMARK   87  A    between atoms: _222  and  _225
REMARK   88  A    between atoms: _225  and  _226
REMARK   89  A    between atoms: _229  and  _231
REMARK   90  A    between atoms: _231  and  _232
REMARK   91  A    between atoms: _231  and  _234
REMARK   92  A    between atoms: _234  and  _235
REMARK   93  A    between atoms: _238  and  _240
REMARK   94  A    between atoms: _240  and  _241
REMARK   95  A    between atoms: _240  and  _243
REMARK   96  A    between atoms: _243  and  _244
REMARK   97  A    between atoms: _247  and  _249
REMARK   98  A    between atoms: _249  and  _250
REMARK   99  A    between atoms: _252  and  _254
REMARK  100  A    between atoms: _254  and  _255
REMARK  101  A    between atoms: _254  and  _257
REMARK  102  A    between atoms: _261  and  _263
REMARK  103  A    between atoms: _263  and  _264
REMARK  104  A    between atoms: _263  and  _266
REMARK  105  A    between atoms: _266  and  _267
REMARK  106  A    between atoms: _270  and  _272
REMARK  107  A    between atoms: _272  and  _273
REMARK  108  A    between atoms: _272  and  _275
REMARK  109  A    between atoms: _275  and  _276
REMARK  110  A    between atoms: _281  and  _283
REMARK  111  A    between atoms: _283  and  _284
REMARK  112  A    between atoms: _283  and  _286
REMARK  113  A    between atoms: _286  and  _287
REMARK  114  A    between atoms: _292  and  _293
REMARK  115  A    between atoms: _295  and  _297
REMARK  116  A    between atoms: _297  and  _298
REMARK  117  A    between atoms: _297  and  _300
REMARK  118  A    between atoms: _302  and  _304
REMARK  119  A    between atoms: _304  and  _305
REMARK  120  A    between atoms: _307  and  _309
REMARK  121  A    between atoms: _309  and  _310
REMARK  122  A    between atoms: _309  and  _312
REMARK  123  A    between atoms: _312  and  _313
REMARK  124  A    between atoms: _317  and  CO_451
REMARK  125  A    between atoms: _318  and  _320
REMARK  126  A    between atoms: _320  and  _321
REMARK  127  A    between atoms: _323  and  _325
REMARK  128  A    between atoms: _325  and  _326
REMARK  129  A    between atoms: _325  and  _328
REMARK  130  A    between atoms: _328  and  _329
REMARK  131  A    between atoms: _332  and  _334
REMARK  132  A    between atoms: _334  and  _335
REMARK  133  A    between atoms: _334  and  _337
REMARK  134  A    between atoms: _337  and  _338
REMARK  135  A    between atoms: _344  and  _346
REMARK  136  A    between atoms: _346  and  _347
REMARK  137  A    between atoms: _346  and  _349
REMARK  138  A    between atoms: _349  and  _350
REMARK  139  A    between atoms: _355  and  _357
REMARK  140  A    between atoms: _357  and  _358
REMARK  141  A    between atoms: _357  and  _360
REMARK  142  A    between atoms: _360  and  _361
REMARK  143  A    between atoms: _364  and  _366
REMARK  144  A    between atoms: _366  and  _367
REMARK  145  A    between atoms: _366  and  _369
REMARK  146  A    between atoms: _369  and  _370
REMARK  147  A    between atoms: _373  and  _375
REMARK  148  A    between atoms: _375  and  _376
REMARK  149  A    between atoms: _375  and  _378
REMARK  150  A    between atoms: _378  and  _379
REMARK  151  A    between atoms: _379  and  _380
REMARK  152  A    between atoms: _383  and  _385
REMARK  153  A    between atoms: _385  and  _386
REMARK  154  A    between atoms: _385  and  _388
REMARK  155  A    between atoms: _388  and  _389
REMARK  156  A    between atoms: _389  and  _390
REMARK  157  A    between atoms: _392  and  _394
REMARK  158  A    between atoms: _394  and  _395
REMARK  159  A    between atoms: _394  and  _397
REMARK  160  A    between atoms: _397  and  _398
REMARK  161  A    between atoms: _408  and  _410
REMARK  162  A    between atoms: _410  and  _411
REMARK  163  A    between atoms: _410  and  _413
REMARK  164  A    between atoms: _413  and  _414
REMARK  165  A    between atoms: _414  and  _415
REMARK  166  A    between atoms: _420  and  _422
REMARK  167  A    between atoms: _422  and  _423
REMARK  168  A    between atoms: _422  and  _425
REMARK  169  A    between atoms: _425  and  _426
REMARK  170  A    between atoms: _432  and  _434
REMARK  171  A    between atoms: _434  and  _435
REMARK  172  A    between atoms: _434  and  _437
REMARK  173  A    between atoms: _437  and  _438
REMARK  174  A    between atoms: _438  and  _439
REMARK  175  A    between atoms: _442  and  _444
REMARK  176  A    between atoms: _444  and  _445
REMARK  177  A    between atoms: _444  and  _447
REMARK  178  A    between atoms: _447  and  _448
REMARK                            x       y       z     vdW  Elec       q    Type
REMARK                         _______ _______ _______ _____ _____    ______ ____
ROOT
ATOM      1  O   HOH     1      16.703 -11.335  13.407  0.00  0.00    +0.000 OA
ENDROOT
TORSDOF 0
REMARK  Name = ../refined-set-2016/4u1b/4u1b_pocket.pdb
REMARK  178 active torsions:
REMARK  status: ('A' for Active; 'I' for Inactive)
REMARK    1  A    between atoms: _1  and  _3
REMARK    2  A    between atoms: _3  and  _4
REMARK    3  A    between atoms: _3  and  _6
REMARK    4  A    between atoms: _6  and  _7
REMARK    5  A    between atoms: _12  and  _13
REMARK    6  A    between atoms: _15  and  _17
REMARK    7  A    between atoms: _17  and  _18
REMARK    8  A    between atoms: _17  and  _20
REMARK    9  A    between atoms: _20  and  _21
REMARK   10  A    between atoms: _21  and  _22
REMARK   11  A    between atoms: _26  and  _27
REMARK   12  A    between atoms: _32  and  _34
REMARK   13  A    between atoms: _34  and  _35
REMARK   14  A    between atoms: _34  and  _37
REMARK   15  A    between atoms: _37  and  _38
REMARK   16  A    between atoms: _41  and  _42
REMARK   17  A    between atoms: _47  and  _49
REMARK   18  A    between atoms: _49  and  _50
REMARK   19  A    between atoms: _49  and  _52
REMARK   20  A    between atoms: _52  and  _53
REMARK   21  A    between atoms: _56  and  _58
REMARK   22  A    between atoms: _58  and  _59
REMARK   23  A    between atoms: _58  and  _61
REMARK   24  A    between atoms: _61  and  _62
REMARK   25  A    between atoms: _67  and  _69
REMARK   26  A    between atoms: _69  and  _70
REMARK   27  A    between atoms: _69  and  _72
REMARK   28  A    between atoms: _72  and  _73
REMARK   29  A    between atoms: _78  and  _79
REMARK   30  A    between atoms: _81  and  _83
REMARK   31  A    between atoms: _83  and  _84
REMARK   32  A    between atoms: _83  and  _86
REMARK   33  A    between atoms: _86  and  _87
REMARK   34  A    between atoms: _92  and  _93
REMARK   35  A    between atoms: _95  and  _97
REMARK   36  A    between atoms: _97  and  _98
REMARK   37  A    between atoms: _97  and  _100
REMARK   38  A    between atoms: _100  and  _101
REMARK   39  A    between atoms: _106  and  _108
REMARK   40  A    between atoms: _108  and  _109
REMARK   41  A    between atoms: _108  and  _111
REMARK   42  A    between atoms: _111  and  _112
REMARK   43  A    between atoms: _119  and  _120
REMARK   44  A    between atoms: _125  and  _127
REMARK   45  A    between atoms: _127  and  _128
REMARK   46  A    between atoms: _127  and  _130
REMARK   47  A    between atoms: _130  and  _131
REMARK   48  A    between atoms: _131  and  _132
REMARK   49  A    between atoms: _132  and  _133
REMARK   50  A    between atoms: _133  and  _134
REMARK   51  A    between atoms: _138  and  _140
REMARK   52  A    between atoms: _140  and  _141
REMARK   53  A    between atoms: _140  and  _143
REMARK   54  A    between atoms: _143  and  _144
REMARK   55  A    between atoms: _146  and  _148
REMARK   56  A    between atoms: _148  and  _149
REMARK   57  A    between atoms: _148  and  _151
REMARK   58  A    between atoms: _153  and  _155
REMARK   59  A    between atoms: _155  and  _156
REMARK   60  A    between atoms: _155  and  _158
REMARK   61  A    between atoms: _160  and  _162
REMARK   62  A    between atoms: _162  and  _163
REMARK   63  A    between atoms: _162  and  _165
REMARK   64  A    between atoms: _167  and  _169
REMARK   65  A    between atoms: _169  and  _170
REMARK   66  A    between atoms: _169  and  _172
REMARK   67  A    between atoms: _172  and  _173
REMARK   68  A    between atoms: _178  and  _180
REMARK   69  A    between atoms: _180  and  _181
REMARK   70  A    between atoms: _183  and  _185
REMARK   71  A    between atoms: _185  and  _186
REMARK   72  A    between atoms: _185  and  _188
REMARK   73  A    between atoms: _188  and  _189
REMARK   74  A    between atoms: _192  and  _194
REMARK   75  A    between atoms: _194  and  _195
REMARK   76  A    between atoms: _194  and  _197
REMARK   77  A    between atoms: _197  and  _198
REMARK   78  A    between atoms: _203  and  _205
REMARK   79  A    between atoms: _205  and  _206
REMARK   80  A    between atoms: _205  and  _208
REMARK   81  A    between atoms: _211  and  _213
REMARK   82  A    between atoms: _213  and  _214
REMARK   83  A    between atoms: _213  and  _216
REMARK   84  A    between atoms: _216  and  _217
REMARK   85  A    between atoms: _220  and  _222
REMARK   86  A    between atoms: _222  and  _223
REMARK   87  A    between atoms: _222  and  _225
REMARK   88  A    between atoms: _225  and  _226
REMARK   89  A    between atoms: _229  and  _231
REMARK   90  A    between atoms: _231  and  _232
REMARK   91  A    between atoms: _231  and  _234
REMARK   92  A    between atoms: _234  and  _235
REMARK   93  A    between atoms: _238  and  _240
REMARK   94  A    between atoms: _240  and  _241
REMARK   95  A    between atoms: _240  and  _243
REMARK   96  A    between atoms: _243  and  _244
REMARK   97  A    between atoms: _247  and  _249
REMARK   98  A    between atoms: _249  and  _250
REMARK   99  A    between atoms: _252  and  _254
REMARK  100  A    between atoms: _254  and  _255
REMARK  101  A    between atoms: _254  and  _257
REMARK  102  A    between atoms: _261  and  _263
REMARK  103  A    between atoms: _263  and  _264
REMARK  104  A    between atoms: _263  and  _266
REMARK  105  A    between atoms: _266  and  _267
REMARK  106  A    between atoms: _270  and  _272
REMARK  107  A    between atoms: _272  and  _273
REMARK  108  A    between atoms: _272  and  _275
REMARK  109  A    between atoms: _275  and  _276
REMARK  110  A    between atoms: _281  and  _283
REMARK  111  A    between atoms: _283  and  _284
REMARK  112  A    between atoms: _283  and  _286
REMARK  113  A    between atoms: _286  and  _287
REMARK  114  A    between atoms: _292  and  _293
REMARK  115  A    between atoms: _295  and  _297
REMARK  116  A    between atoms: _297  and  _298
REMARK  117  A    between atoms: _297  and  _300
REMARK  118  A    between atoms: _302  and  _304
REMARK  119  A    between atoms: _304  and  _305
REMARK  120  A    between atoms: _307  and  _309
REMARK  121  A    between atoms: _309  and  _310
REMARK  122  A    between atoms: _309  and  _312
REMARK  123  A    between atoms: _312  and  _313
REMARK  124  A    between atoms: _317  and  CO_451
REMARK  125  A    between atoms: _318  and  _320
REMARK  126  A    between atoms: _320  and  _321
REMARK  127  A    between atoms: _323  and  _325
REMARK  128  A    between atoms: _325  and  _326
REMARK  129  A    between atoms: _325  and  _328
REMARK  130  A    between atoms: _328  and  _329
REMARK  131  A    between atoms: _332  and  _334
REMARK  132  A    between atoms: _334  and  _335
REMARK  133  A    between atoms: _334  and  _337
REMARK  134  A    between atoms: _337  and  _338
REMARK  135  A    between atoms: _344  and  _346
REMARK  136  A    between atoms: _346  and  _347
REMARK  137  A    between atoms: _346  and  _349
REMARK  138  A    between atoms: _349  and  _350
REMARK  139  A    between atoms: _355  and  _357
REMARK  140  A    between atoms: _357  and  _358
REMARK  141  A    between atoms: _357  and  _360
REMARK  142  A    between atoms: _360  and  _361
REMARK  143  A    between atoms: _364  and  _366
REMARK  144  A    between atoms: _366  and  _367
REMARK  145  A    between atoms: _366  and  _369
REMARK  146  A    between atoms: _369  and  _370
REMARK  147  A    between atoms: _373  and  _375
REMARK  148  A    between atoms: _375  and  _376
REMARK  149  A    between atoms: _375  and  _378
REMARK  150  A    between atoms: _378  and  _379
REMARK  151  A    between atoms: _379  and  _380
REMARK  152  A    between atoms: _383  and  _385
REMARK  153  A    between atoms: _385  and  _386
REMARK  154  A    between atoms: _385  and  _388
REMARK  155  A    between atoms: _388  and  _389
REMARK  156  A    between atoms: _389  and  _390
REMARK  157  A    between atoms: _392  and  _394
REMARK  158  A    between atoms: _394  and  _395
REMARK  159  A    between atoms: _394  and  _397
REMARK  160  A    between atoms: _397  and  _398
REMARK  161  A    between atoms: _408  and  _410
REMARK  162  A    between atoms: _410  and  _411
REMARK  163  A    between atoms: _410  and  _413
REMARK  164  A    between atoms: _413  and  _414
REMARK  165  A    between atoms: _414  and  _415
REMARK  166  A    between atoms: _420  and  _422
REMARK  167  A    between atoms: _422  and  _423
REMARK  168  A    between atoms: _422  and  _425
REMARK  169  A    between atoms: _425  and  _426
REMARK  170  A    between atoms: _432  and  _434
REMARK  171  A    between atoms: _434  and  _435
REMARK  172  A    between atoms: _434  and  _437
REMARK  173  A    between atoms: _437  and  _438
REMARK  174  A    between atoms: _438  and  _439
REMARK  175  A    between atoms: _442  and  _444
REMARK  176  A    between atoms: _444  and  _445
REMARK  177  A    between atoms: _444  and  _447
REMARK  178  A    between atoms: _447  and  _448
REMARK                            x       y       z     vdW  Elec       q    Type
REMARK                         _______ _______ _______ _____ _____    ______ ____
ROOT
ATOM      1  O   HOH     1      16.344  -2.926  15.685  0.00  0.00    +0.000 OA
ENDROOT
TORSDOF 0
REMARK  Name = ../refined-set-2016/4u1b/4u1b_pocket.pdb
REMARK  178 active torsions:
REMARK  status: ('A' for Active; 'I' for Inactive)
REMARK    1  A    between atoms: _1  and  _3
REMARK    2  A    between atoms: _3  and  _4
REMARK    3  A    between atoms: _3  and  _6
REMARK    4  A    between atoms: _6  and  _7
REMARK    5  A    between atoms: _12  and  _13
REMARK    6  A    between atoms: _15  and  _17
REMARK    7  A    between atoms: _17  and  _18
REMARK    8  A    between atoms: _17  and  _20
REMARK    9  A    between atoms: _20  and  _21
REMARK   10  A    between atoms: _21  and  _22
REMARK   11  A    between atoms: _26  and  _27
REMARK   12  A    between atoms: _32  and  _34
REMARK   13  A    between atoms: _34  and  _35
REMARK   14  A    between atoms: _34  and  _37
REMARK   15  A    between atoms: _37  and  _38
REMARK   16  A    between atoms: _41  and  _42
REMARK   17  A    between atoms: _47  and  _49
REMARK   18  A    between atoms: _49  and  _50
REMARK   19  A    between atoms: _49  and  _52
REMARK   20  A    between atoms: _52  and  _53
REMARK   21  A    between atoms: _56  and  _58
REMARK   22  A    between atoms: _58  and  _59
REMARK   23  A    between atoms: _58  and  _61
REMARK   24  A    between atoms: _61  and  _62
REMARK   25  A    between atoms: _67  and  _69
REMARK   26  A    between atoms: _69  and  _70
REMARK   27  A    between atoms: _69  and  _72
REMARK   28  A    between atoms: _72  and  _73
REMARK   29  A    between atoms: _78  and  _79
REMARK   30  A    between atoms: _81  and  _83
REMARK   31  A    between atoms: _83  and  _84
REMARK   32  A    between atoms: _83  and  _86
REMARK   33  A    between atoms: _86  and  _87
REMARK   34  A    between atoms: _92  and  _93
REMARK   35  A    between atoms: _95  and  _97
REMARK   36  A    between atoms: _97  and  _98
REMARK   37  A    between atoms: _97  and  _100
REMARK   38  A    between atoms: _100  and  _101
REMARK   39  A    between atoms: _106  and  _108
REMARK   40  A    between atoms: _108  and  _109
REMARK   41  A    between atoms: _108  and  _111
REMARK   42  A    between atoms: _111  and  _112
REMARK   43  A    between atoms: _119  and  _120
REMARK   44  A    between atoms: _125  and  _127
REMARK   45  A    between atoms: _127  and  _128
REMARK   46  A    between atoms: _127  and  _130
REMARK   47  A    between atoms: _130  and  _131
REMARK   48  A    between atoms: _131  and  _132
REMARK   49  A    between atoms: _132  and  _133
REMARK   50  A    between atoms: _133  and  _134
REMARK   51  A    between atoms: _138  and  _140
REMARK   52  A    between atoms: _140  and  _141
REMARK   53  A    between atoms: _140  and  _143
REMARK   54  A    between atoms: _143  and  _144
REMARK   55  A    between atoms: _146  and  _148
REMARK   56  A    between atoms: _148  and  _149
REMARK   57  A    between atoms: _148  and  _151
REMARK   58  A    between atoms: _153  and  _155
REMARK   59  A    between atoms: _155  and  _156
REMARK   60  A    between atoms: _155  and  _158
REMARK   61  A    between atoms: _160  and  _162
REMARK   62  A    between atoms: _162  and  _163
REMARK   63  A    between atoms: _162  and  _165
REMARK   64  A    between atoms: _167  and  _169
REMARK   65  A    between atoms: _169  and  _170
REMARK   66  A    between atoms: _169  and  _172
REMARK   67  A    between atoms: _172  and  _173
REMARK   68  A    between atoms: _178  and  _180
REMARK   69  A    between atoms: _180  and  _181
REMARK   70  A    between atoms: _183  and  _185
REMARK   71  A    between atoms: _185  and  _186
REMARK   72  A    between atoms: _185  and  _188
REMARK   73  A    between atoms: _188  and  _189
REMARK   74  A    between atoms: _192  and  _194
REMARK   75  A    between atoms: _194  and  _195
REMARK   76  A    between atoms: _194  and  _197
REMARK   77  A    between atoms: _197  and  _198
REMARK   78  A    between atoms: _203  and  _205
REMARK   79  A    between atoms: _205  and  _206
REMARK   80  A    between atoms: _205  and  _208
REMARK   81  A    between atoms: _211  and  _213
REMARK   82  A    between atoms: _213  and  _214
REMARK   83  A    between atoms: _213  and  _216
REMARK   84  A    between atoms: _216  and  _217
REMARK   85  A    between atoms: _220  and  _222
REMARK   86  A    between atoms: _222  and  _223
REMARK   87  A    between atoms: _222  and  _225
REMARK   88  A    between atoms: _225  and  _226
REMARK   89  A    between atoms: _229  and  _231
REMARK   90  A    between atoms: _231  and  _232
REMARK   91  A    between atoms: _231  and  _234
REMARK   92  A    between atoms: _234  and  _235
REMARK   93  A    between atoms: _238  and  _240
REMARK   94  A    between atoms: _240  and  _241
REMARK   95  A    between atoms: _240  and  _243
REMARK   96  A    between atoms: _243  and  _244
REMARK   97  A    between atoms: _247  and  _249
REMARK   98  A    between atoms: _249  and  _250
REMARK   99  A    between atoms: _252  and  _254
REMARK  100  A    between atoms: _254  and  _255
REMARK  101  A    between atoms: _254  and  _257
REMARK  102  A    between atoms: _261  and  _263
REMARK  103  A    between atoms: _263  and  _264
REMARK  104  A    between atoms: _263  and  _266
REMARK  105  A    between atoms: _266  and  _267
REMARK  106  A    between atoms: _270  and  _272
REMARK  107  A    between atoms: _272  and  _273
REMARK  108  A    between atoms: _272  and  _275
REMARK  109  A    between atoms: _275  and  _276
REMARK  110  A    between atoms: _281  and  _283
REMARK  111  A    between atoms: _283  and  _284
REMARK  112  A    between atoms: _283  and  _286
REMARK  113  A    between atoms: _286  and  _287
REMARK  114  A    between atoms: _292  and  _293
REMARK  115  A    between atoms: _295  and  _297
REMARK  116  A    between atoms: _297  and  _298
REMARK  117  A    between atoms: _297  and  _300
REMARK  118  A    between atoms: _302  and  _304
REMARK  119  A    between atoms: _304  and  _305
REMARK  120  A    between atoms: _307  and  _309
REMARK  121  A    between atoms: _309  and  _310
REMARK  122  A    between atoms: _309  and  _312
REMARK  123  A    between atoms: _312  and  _313
REMARK  124  A    between atoms: _317  and  CO_451
REMARK  125  A    between atoms: _318  and  _320
REMARK  126  A    between atoms: _320  and  _321
REMARK  127  A    between atoms: _323  and  _325
REMARK  128  A    between atoms: _325  and  _326
REMARK  129  A    between atoms: _325  and  _328
REMARK  130  A    between atoms: _328  and  _329
REMARK  131  A    between atoms: _332  and  _334
REMARK  132  A    between atoms: _334  and  _335
REMARK  133  A    between atoms: _334  and  _337
REMARK  134  A    between atoms: _337  and  _338
REMARK  135  A    between atoms: _344  and  _346
REMARK  136  A    between atoms: _346  and  _347
REMARK  137  A    between atoms: _346  and  _349
REMARK  138  A    between atoms: _349  and  _350
REMARK  139  A    between atoms: _355  and  _357
REMARK  140  A    between atoms: _357  and  _358
REMARK  141  A    between atoms: _357  and  _360
REMARK  142  A    between atoms: _360  and  _361
REMARK  143  A    between atoms: _364  and  _366
REMARK  144  A    between atoms: _366  and  _367
REMARK  145  A    between atoms: _366  and  _369
REMARK  146  A    between atoms: _369  and  _370
REMARK  147  A    between atoms: _373  and  _375
REMARK  148  A    between atoms: _375  and  _376
REMARK  149  A    between atoms: _375  and  _378
REMARK  150  A    between atoms: _378  and  _379
REMARK  151  A    between atoms: _379  and  _380
REMARK  152  A    between atoms: _383  and  _385
REMARK  153  A    between atoms: _385  and  _386
REMARK  154  A    between atoms: _385  and  _388
REMARK  155  A    between atoms: _388  and  _389
REMARK  156  A    between atoms: _389  and  _390
REMARK  157  A    between atoms: _392  and  _394
REMARK  158  A    between atoms: _394  and  _395
REMARK  159  A    between atoms: _394  and  _397
REMARK  160  A    between atoms: _397  and  _398
REMARK  161  A    between atoms: _408  and  _410
REMARK  162  A    between atoms: _410  and  _411
REMARK  163  A    between atoms: _410  and  _413
REMARK  164  A    between atoms: _413  and  _414
REMARK  165  A    between atoms: _414  and  _415
REMARK  166  A    between atoms: _420  and  _422
REMARK  167  A    between atoms: _422  and  _423
REMARK  168  A    between atoms: _422  and  _425
REMARK  169  A    between atoms: _425  and  _426
REMARK  170  A    between atoms: _432  and  _434
REMARK  171  A    between atoms: _434  and  _435
REMARK  172  A    between atoms: _434  and  _437
REMARK  173  A    between atoms: _437  and  _438
REMARK  174  A    between atoms: _438  and  _439
REMARK  175  A    between atoms: _442  and  _444
REMARK  176  A    between atoms: _444  and  _445
REMARK  177  A    between atoms: _444  and  _447
REMARK  178  A    between atoms: _447  and  _448
REMARK                            x       y       z     vdW  Elec       q    Type
REMARK                         _______ _______ _______ _____ _____    ______ ____
ROOT
ATOM      1  O   HOH     1      18.556  -1.747  16.035  0.00  0.00    +0.000 OA
ENDROOT
TORSDOF 0
REMARK  Name = ../refined-set-2016/4u1b/4u1b_pocket.pdb
REMARK  178 active torsions:
REMARK  status: ('A' for Active; 'I' for Inactive)
REMARK    1  A    between atoms: _1  and  _3
REMARK    2  A    between atoms: _3  and  _4
REMARK    3  A    between atoms: _3  and  _6
REMARK    4  A    between atoms: _6  and  _7
REMARK    5  A    between atoms: _12  and  _13
REMARK    6  A    between atoms: _15  and  _17
REMARK    7  A    between atoms: _17  and  _18
REMARK    8  A    between atoms: _17  and  _20
REMARK    9  A    between atoms: _20  and  _21
REMARK   10  A    between atoms: _21  and  _22
REMARK   11  A    between atoms: _26  and  _27
REMARK   12  A    between atoms: _32  and  _34
REMARK   13  A    between atoms: _34  and  _35
REMARK   14  A    between atoms: _34  and  _37
REMARK   15  A    between atoms: _37  and  _38
REMARK   16  A    between atoms: _41  and  _42
REMARK   17  A    between atoms: _47  and  _49
REMARK   18  A    between atoms: _49  and  _50
REMARK   19  A    between atoms: _49  and  _52
REMARK   20  A    between atoms: _52  and  _53
REMARK   21  A    between atoms: _56  and  _58
REMARK   22  A    between atoms: _58  and  _59
REMARK   23  A    between atoms: _58  and  _61
REMARK   24  A    between atoms: _61  and  _62
REMARK   25  A    between atoms: _67  and  _69
REMARK   26  A    between atoms: _69  and  _70
REMARK   27  A    between atoms: _69  and  _72
REMARK   28  A    between atoms: _72  and  _73
REMARK   29  A    between atoms: _78  and  _79
REMARK   30  A    between atoms: _81  and  _83
REMARK   31  A    between atoms: _83  and  _84
REMARK   32  A    between atoms: _83  and  _86
REMARK   33  A    between atoms: _86  and  _87
REMARK   34  A    between atoms: _92  and  _93
REMARK   35  A    between atoms: _95  and  _97
REMARK   36  A    between atoms: _97  and  _98
REMARK   37  A    between atoms: _97  and  _100
REMARK   38  A    between atoms: _100  and  _101
REMARK   39  A    between atoms: _106  and  _108
REMARK   40  A    between atoms: _108  and  _109
REMARK   41  A    between atoms: _108  and  _111
REMARK   42  A    between atoms: _111  and  _112
REMARK   43  A    between atoms: _119  and  _120
REMARK   44  A    between atoms: _125  and  _127
REMARK   45  A    between atoms: _127  and  _128
REMARK   46  A    between atoms: _127  and  _130
REMARK   47  A    between atoms: _130  and  _131
REMARK   48  A    between atoms: _131  and  _132
REMARK   49  A    between atoms: _132  and  _133
REMARK   50  A    between atoms: _133  and  _134
REMARK   51  A    between atoms: _138  and  _140
REMARK   52  A    between atoms: _140  and  _141
REMARK   53  A    between atoms: _140  and  _143
REMARK   54  A    between atoms: _143  and  _144
REMARK   55  A    between atoms: _146  and  _148
REMARK   56  A    between atoms: _148  and  _149
REMARK   57  A    between atoms: _148  and  _151
REMARK   58  A    between atoms: _153  and  _155
REMARK   59  A    between atoms: _155  and  _156
REMARK   60  A    between atoms: _155  and  _158
REMARK   61  A    between atoms: _160  and  _162
REMARK   62  A    between atoms: _162  and  _163
REMARK   63  A    between atoms: _162  and  _165
REMARK   64  A    between atoms: _167  and  _169
REMARK   65  A    between atoms: _169  and  _170
REMARK   66  A    between atoms: _169  and  _172
REMARK   67  A    between atoms: _172  and  _173
REMARK   68  A    between atoms: _178  and  _180
REMARK   69  A    between atoms: _180  and  _181
REMARK   70  A    between atoms: _183  and  _185
REMARK   71  A    between atoms: _185  and  _186
REMARK   72  A    between atoms: _185  and  _188
REMARK   73  A    between atoms: _188  and  _189
REMARK   74  A    between atoms: _192  and  _194
REMARK   75  A    between atoms: _194  and  _195
REMARK   76  A    between atoms: _194  and  _197
REMARK   77  A    between atoms: _197  and  _198
REMARK   78  A    between atoms: _203  and  _205
REMARK   79  A    between atoms: _205  and  _206
REMARK   80  A    between atoms: _205  and  _208
REMARK   81  A    between atoms: _211  and  _213
REMARK   82  A    between atoms: _213  and  _214
REMARK   83  A    between atoms: _213  and  _216
REMARK   84  A    between atoms: _216  and  _217
REMARK   85  A    between atoms: _220  and  _222
REMARK   86  A    between atoms: _222  and  _223
REMARK   87  A    between atoms: _222  and  _225
REMARK   88  A    between atoms: _225  and  _226
REMARK   89  A    between atoms: _229  and  _231
REMARK   90  A    between atoms: _231  and  _232
REMARK   91  A    between atoms: _231  and  _234
REMARK   92  A    between atoms: _234  and  _235
REMARK   93  A    between atoms: _238  and  _240
REMARK   94  A    between atoms: _240  and  _241
REMARK   95  A    between atoms: _240  and  _243
REMARK   96  A    between atoms: _243  and  _244
REMARK   97  A    between atoms: _247  and  _249
REMARK   98  A    between atoms: _249  and  _250
REMARK   99  A    between atoms: _252  and  _254
REMARK  100  A    between atoms: _254  and  _255
REMARK  101  A    between atoms: _254  and  _257
REMARK  102  A    between atoms: _261  and  _263
REMARK  103  A    between atoms: _263  and  _264
REMARK  104  A    between atoms: _263  and  _266
REMARK  105  A    between atoms: _266  and  _267
REMARK  106  A    between atoms: _270  and  _272
REMARK  107  A    between atoms: _272  and  _273
REMARK  108  A    between atoms: _272  and  _275
REMARK  109  A    between atoms: _275  and  _276
REMARK  110  A    between atoms: _281  and  _283
REMARK  111  A    between atoms: _283  and  _284
REMARK  112  A    between atoms: _283  and  _286
REMARK  113  A    between atoms: _286  and  _287
REMARK  114  A    between atoms: _292  and  _293
REMARK  115  A    between atoms: _295  and  _297
REMARK  116  A    between atoms: _297  and  _298
REMARK  117  A    between atoms: _297  and  _300
REMARK  118  A    between atoms: _302  and  _304
REMARK  119  A    between atoms: _304  and  _305
REMARK  120  A    between atoms: _307  and  _309
REMARK  121  A    between atoms: _309  and  _310
REMARK  122  A    between atoms: _309  and  _312
REMARK  123  A    between atoms: _312  and  _313
REMARK  124  A    between atoms: _317  and  CO_451
REMARK  125  A    between atoms: _318  and  _320
REMARK  126  A    between atoms: _320  and  _321
REMARK  127  A    between atoms: _323  and  _325
REMARK  128  A    between atoms: _325  and  _326
REMARK  129  A    between atoms: _325  and  _328
REMARK  130  A    between atoms: _328  and  _329
REMARK  131  A    between atoms: _332  and  _334
REMARK  132  A    between atoms: _334  and  _335
REMARK  133  A    between atoms: _334  and  _337
REMARK  134  A    between atoms: _337  and  _338
REMARK  135  A    between atoms: _344  and  _346
REMARK  136  A    between atoms: _346  and  _347
REMARK  137  A    between atoms: _346  and  _349
REMARK  138  A    between atoms: _349  and  _350
REMARK  139  A    between atoms: _355  and  _357
REMARK  140  A    between atoms: _357  and  _358
REMARK  141  A    between atoms: _357  and  _360
REMARK  142  A    between atoms: _360  and  _361
REMARK  143  A    between atoms: _364  and  _366
REMARK  144  A    between atoms: _366  and  _367
REMARK  145  A    between atoms: _366  and  _369
REMARK  146  A    between atoms: _369  and  _370
REMARK  147  A    between atoms: _373  and  _375
REMARK  148  A    between atoms: _375  and  _376
REMARK  149  A    between atoms: _375  and  _378
REMARK  150  A    between atoms: _378  and  _379
REMARK  151  A    between atoms: _379  and  _380
REMARK  152  A    between atoms: _383  and  _385
REMARK  153  A    between atoms: _385  and  _386
REMARK  154  A    between atoms: _385  and  _388
REMARK  155  A    between atoms: _388  and  _389
REMARK  156  A    between atoms: _389  and  _390
REMARK  157  A    between atoms: _392  and  _394
REMARK  158  A    between atoms: _394  and  _395
REMARK  159  A    between atoms: _394  and  _397
REMARK  160  A    between atoms: _397  and  _398
REMARK  161  A    between atoms: _408  and  _410
REMARK  162  A    between atoms: _410  and  _411
REMARK  163  A    between atoms: _410  and  _413
REMARK  164  A    between atoms: _413  and  _414
REMARK  165  A    between atoms: _414  and  _415
REMARK  166  A    between atoms: _420  and  _422
REMARK  167  A    between atoms: _422  and  _423
REMARK  168  A    between atoms: _422  and  _425
REMARK  169  A    between atoms: _425  and  _426
REMARK  170  A    between atoms: _432  and  _434
REMARK  171  A    between atoms: _434  and  _435
REMARK  172  A    between atoms: _434  and  _437
REMARK  173  A    between atoms: _437  and  _438
REMARK  174  A    between atoms: _438  and  _439
REMARK  175  A    between atoms: _442  and  _444
REMARK  176  A    between atoms: _444  and  _445
REMARK  177  A    between atoms: _444  and  _447
REMARK  178  A    between atoms: _447  and  _448
REMARK                            x       y       z     vdW  Elec       q    Type
REMARK                         _______ _______ _______ _____ _____    ______ ____
ROOT
ATOM      1  O   HOH     1      18.105  -0.495  18.967  0.00  0.00    +0.000 OA
ENDROOT
TORSDOF 0
REMARK  Name = ../refined-set-2016/4u1b/4u1b_pocket.pdb
REMARK  178 active torsions:
REMARK  status: ('A' for Active; 'I' for Inactive)
REMARK    1  A    between atoms: _1  and  _3
REMARK    2  A    between atoms: _3  and  _4
REMARK    3  A    between atoms: _3  and  _6
REMARK    4  A    between atoms: _6  and  _7
REMARK    5  A    between atoms: _12  and  _13
REMARK    6  A    between atoms: _15  and  _17
REMARK    7  A    between atoms: _17  and  _18
REMARK    8  A    between atoms: _17  and  _20
REMARK    9  A    between atoms: _20  and  _21
REMARK   10  A    between atoms: _21  and  _22
REMARK   11  A    between atoms: _26  and  _27
REMARK   12  A    between atoms: _32  and  _34
REMARK   13  A    between atoms: _34  and  _35
REMARK   14  A    between atoms: _34  and  _37
REMARK   15  A    between atoms: _37  and  _38
REMARK   16  A    between atoms: _41  and  _42
REMARK   17  A    between atoms: _47  and  _49
REMARK   18  A    between atoms: _49  and  _50
REMARK   19  A    between atoms: _49  and  _52
REMARK   20  A    between atoms: _52  and  _53
REMARK   21  A    between atoms: _56  and  _58
REMARK   22  A    between atoms: _58  and  _59
REMARK   23  A    between atoms: _58  and  _61
REMARK   24  A    between atoms: _61  and  _62
REMARK   25  A    between atoms: _67  and  _69
REMARK   26  A    between atoms: _69  and  _70
REMARK   27  A    between atoms: _69  and  _72
REMARK   28  A    between atoms: _72  and  _73
REMARK   29  A    between atoms: _78  and  _79
REMARK   30  A    between atoms: _81  and  _83
REMARK   31  A    between atoms: _83  and  _84
REMARK   32  A    between atoms: _83  and  _86
REMARK   33  A    between atoms: _86  and  _87
REMARK   34  A    between atoms: _92  and  _93
REMARK   35  A    between atoms: _95  and  _97
REMARK   36  A    between atoms: _97  and  _98
REMARK   37  A    between atoms: _97  and  _100
REMARK   38  A    between atoms: _100  and  _101
REMARK   39  A    between atoms: _106  and  _108
REMARK   40  A    between atoms: _108  and  _109
REMARK   41  A    between atoms: _108  and  _111
REMARK   42  A    between atoms: _111  and  _112
REMARK   43  A    between atoms: _119  and  _120
REMARK   44  A    between atoms: _125  and  _127
REMARK   45  A    between atoms: _127  and  _128
REMARK   46  A    between atoms: _127  and  _130
REMARK   47  A    between atoms: _130  and  _131
REMARK   48  A    between atoms: _131  and  _132
REMARK   49  A    between atoms: _132  and  _133
REMARK   50  A    between atoms: _133  and  _134
REMARK   51  A    between atoms: _138  and  _140
REMARK   52  A    between atoms: _140  and  _141
REMARK   53  A    between atoms: _140  and  _143
REMARK   54  A    between atoms: _143  and  _144
REMARK   55  A    between atoms: _146  and  _148
REMARK   56  A    between atoms: _148  and  _149
REMARK   57  A    between atoms: _148  and  _151
REMARK   58  A    between atoms: _153  and  _155
REMARK   59  A    between atoms: _155  and  _156
REMARK   60  A    between atoms: _155  and  _158
REMARK   61  A    between atoms: _160  and  _162
REMARK   62  A    between atoms: _162  and  _163
REMARK   63  A    between atoms: _162  and  _165
REMARK   64  A    between atoms: _167  and  _169
REMARK   65  A    between atoms: _169  and  _170
REMARK   66  A    between atoms: _169  and  _172
REMARK   67  A    between atoms: _172  and  _173
REMARK   68  A    between atoms: _178  and  _180
REMARK   69  A    between atoms: _180  and  _181
REMARK   70  A    between atoms: _183  and  _185
REMARK   71  A    between atoms: _185  and  _186
REMARK   72  A    between atoms: _185  and  _188
REMARK   73  A    between atoms: _188  and  _189
REMARK   74  A    between atoms: _192  and  _194
REMARK   75  A    between atoms: _194  and  _195
REMARK   76  A    between atoms: _194  and  _197
REMARK   77  A    between atoms: _197  and  _198
REMARK   78  A    between atoms: _203  and  _205
REMARK   79  A    between atoms: _205  and  _206
REMARK   80  A    between atoms: _205  and  _208
REMARK   81  A    between atoms: _211  and  _213
REMARK   82  A    between atoms: _213  and  _214
REMARK   83  A    between atoms: _213  and  _216
REMARK   84  A    between atoms: _216  and  _217
REMARK   85  A    between atoms: _220  and  _222
REMARK   86  A    between atoms: _222  and  _223
REMARK   87  A    between atoms: _222  and  _225
REMARK   88  A    between atoms: _225  and  _226
REMARK   89  A    between atoms: _229  and  _231
REMARK   90  A    between atoms: _231  and  _232
REMARK   91  A    between atoms: _231  and  _234
REMARK   92  A    between atoms: _234  and  _235
REMARK   93  A    between atoms: _238  and  _240
REMARK   94  A    between atoms: _240  and  _241
REMARK   95  A    between atoms: _240  and  _243
REMARK   96  A    between atoms: _243  and  _244
REMARK   97  A    between atoms: _247  and  _249
REMARK   98  A    between atoms: _249  and  _250
REMARK   99  A    between atoms: _252  and  _254
REMARK  100  A    between atoms: _254  and  _255
REMARK  101  A    between atoms: _254  and  _257
REMARK  102  A    between atoms: _261  and  _263
REMARK  103  A    between atoms: _263  and  _264
REMARK  104  A    between atoms: _263  and  _266
REMARK  105  A    between atoms: _266  and  _267
REMARK  106  A    between atoms: _270  and  _272
REMARK  107  A    between atoms: _272  and  _273
REMARK  108  A    between atoms: _272  and  _275
REMARK  109  A    between atoms: _275  and  _276
REMARK  110  A    between atoms: _281  and  _283
REMARK  111  A    between atoms: _283  and  _284
REMARK  112  A    between atoms: _283  and  _286
REMARK  113  A    between atoms: _286  and  _287
REMARK  114  A    between atoms: _292  and  _293
REMARK  115  A    between atoms: _295  and  _297
REMARK  116  A    between atoms: _297  and  _298
REMARK  117  A    between atoms: _297  and  _300
REMARK  118  A    between atoms: _302  and  _304
REMARK  119  A    between atoms: _304  and  _305
REMARK  120  A    between atoms: _307  and  _309
REMARK  121  A    between atoms: _309  and  _310
REMARK  122  A    between atoms: _309  and  _312
REMARK  123  A    between atoms: _312  and  _313
REMARK  124  A    between atoms: _317  and  CO_451
REMARK  125  A    between atoms: _318  and  _320
REMARK  126  A    between atoms: _320  and  _321
REMARK  127  A    between atoms: _323  and  _325
REMARK  128  A    between atoms: _325  and  _326
REMARK  129  A    between atoms: _325  and  _328
REMARK  130  A    between atoms: _328  and  _329
REMARK  131  A    between atoms: _332  and  _334
REMARK  132  A    between atoms: _334  and  _335
REMARK  133  A    between atoms: _334  and  _337
REMARK  134  A    between atoms: _337  and  _338
REMARK  135  A    between atoms: _344  and  _346
REMARK  136  A    between atoms: _346  and  _347
REMARK  137  A    between atoms: _346  and  _349
REMARK  138  A    between atoms: _349  and  _350
REMARK  139  A    between atoms: _355  and  _357
REMARK  140  A    between atoms: _357  and  _358
REMARK  141  A    between atoms: _357  and  _360
REMARK  142  A    between atoms: _360  and  _361
REMARK  143  A    between atoms: _364  and  _366
REMARK  144  A    between atoms: _366  and  _367
REMARK  145  A    between atoms: _366  and  _369
REMARK  146  A    between atoms: _369  and  _370
REMARK  147  A    between atoms: _373  and  _375
REMARK  148  A    between atoms: _375  and  _376
REMARK  149  A    between atoms: _375  and  _378
REMARK  150  A    between atoms: _378  and  _379
REMARK  151  A    between atoms: _379  and  _380
REMARK  152  A    between atoms: _383  and  _385
REMARK  153  A    between atoms: _385  and  _386
REMARK  154  A    between atoms: _385  and  _388
REMARK  155  A    between atoms: _388  and  _389
REMARK  156  A    between atoms: _389  and  _390
REMARK  157  A    between atoms: _392  and  _394
REMARK  158  A    between atoms: _394  and  _395
REMARK  159  A    between atoms: _394  and  _397
REMARK  160  A    between atoms: _397  and  _398
REMARK  161  A    between atoms: _408  and  _410
REMARK  162  A    between atoms: _410  and  _411
REMARK  163  A    between atoms: _410  and  _413
REMARK  164  A    between atoms: _413  and  _414
REMARK  165  A    between atoms: _414  and  _415
REMARK  166  A    between atoms: _420  and  _422
REMARK  167  A    between atoms: _422  and  _423
REMARK  168  A    between atoms: _422  and  _425
REMARK  169  A    between atoms: _425  and  _426
REMARK  170  A    between atoms: _432  and  _434
REMARK  171  A    between atoms: _434  and  _435
REMARK  172  A    between atoms: _434  and  _437
REMARK  173  A    between atoms: _437  and  _438
REMARK  174  A    between atoms: _438  and  _439
REMARK  175  A    between atoms: _442  and  _444
REMARK  176  A    between atoms: _444  and  _445
REMARK  177  A    between atoms: _444  and  _447
REMARK  178  A    between atoms: _447  and  _448
REMARK                            x       y       z     vdW  Elec       q    Type
REMARK                         _______ _______ _______ _____ _____    ______ ____
ROOT
ATOM      1  O   HOH     1      25.020  -4.375   7.240  0.00  0.00    +0.000 OA
ENDROOT
TORSDOF 0
REMARK  Name = ../refined-set-2016/4u1b/4u1b_pocket.pdb
REMARK  178 active torsions:
REMARK  status: ('A' for Active; 'I' for Inactive)
REMARK    1  A    between atoms: _1  and  _3
REMARK    2  A    between atoms: _3  and  _4
REMARK    3  A    between atoms: _3  and  _6
REMARK    4  A    between atoms: _6  and  _7
REMARK    5  A    between atoms: _12  and  _13
REMARK    6  A    between atoms: _15  and  _17
REMARK    7  A    between atoms: _17  and  _18
REMARK    8  A    between atoms: _17  and  _20
REMARK    9  A    between atoms: _20  and  _21
REMARK   10  A    between atoms: _21  and  _22
REMARK   11  A    between atoms: _26  and  _27
REMARK   12  A    between atoms: _32  and  _34
REMARK   13  A    between atoms: _34  and  _35
REMARK   14  A    between atoms: _34  and  _37
REMARK   15  A    between atoms: _37  and  _38
REMARK   16  A    between atoms: _41  and  _42
REMARK   17  A    between atoms: _47  and  _49
REMARK   18  A    between atoms: _49  and  _50
REMARK   19  A    between atoms: _49  and  _52
REMARK   20  A    between atoms: _52  and  _53
REMARK   21  A    between atoms: _56  and  _58
REMARK   22  A    between atoms: _58  and  _59
REMARK   23  A    between atoms: _58  and  _61
REMARK   24  A    between atoms: _61  and  _62
REMARK   25  A    between atoms: _67  and  _69
REMARK   26  A    between atoms: _69  and  _70
REMARK   27  A    between atoms: _69  and  _72
REMARK   28  A    between atoms: _72  and  _73
REMARK   29  A    between atoms: _78  and  _79
REMARK   30  A    between atoms: _81  and  _83
REMARK   31  A    between atoms: _83  and  _84
REMARK   32  A    between atoms: _83  and  _86
REMARK   33  A    between atoms: _86  and  _87
REMARK   34  A    between atoms: _92  and  _93
REMARK   35  A    between atoms: _95  and  _97
REMARK   36  A    between atoms: _97  and  _98
REMARK   37  A    between atoms: _97  and  _100
REMARK   38  A    between atoms: _100  and  _101
REMARK   39  A    between atoms: _106  and  _108
REMARK   40  A    between atoms: _108  and  _109
REMARK   41  A    between atoms: _108  and  _111
REMARK   42  A    between atoms: _111  and  _112
REMARK   43  A    between atoms: _119  and  _120
REMARK   44  A    between atoms: _125  and  _127
REMARK   45  A    between atoms: _127  and  _128
REMARK   46  A    between atoms: _127  and  _130
REMARK   47  A    between atoms: _130  and  _131
REMARK   48  A    between atoms: _131  and  _132
REMARK   49  A    between atoms: _132  and  _133
REMARK   50  A    between atoms: _133  and  _134
REMARK   51  A    between atoms: _138  and  _140
REMARK   52  A    between atoms: _140  and  _141
REMARK   53  A    between atoms: _140  and  _143
REMARK   54  A    between atoms: _143  and  _144
REMARK   55  A    between atoms: _146  and  _148
REMARK   56  A    between atoms: _148  and  _149
REMARK   57  A    between atoms: _148  and  _151
REMARK   58  A    between atoms: _153  and  _155
REMARK   59  A    between atoms: _155  and  _156
REMARK   60  A    between atoms: _155  and  _158
REMARK   61  A    between atoms: _160  and  _162
REMARK   62  A    between atoms: _162  and  _163
REMARK   63  A    between atoms: _162  and  _165
REMARK   64  A    between atoms: _167  and  _169
REMARK   65  A    between atoms: _169  and  _170
REMARK   66  A    between atoms: _169  and  _172
REMARK   67  A    between atoms: _172  and  _173
REMARK   68  A    between atoms: _178  and  _180
REMARK   69  A    between atoms: _180  and  _181
REMARK   70  A    between atoms: _183  and  _185
REMARK   71  A    between atoms: _185  and  _186
REMARK   72  A    between atoms: _185  and  _188
REMARK   73  A    between atoms: _188  and  _189
REMARK   74  A    between atoms: _192  and  _194
REMARK   75  A    between atoms: _194  and  _195
REMARK   76  A    between atoms: _194  and  _197
REMARK   77  A    between atoms: _197  and  _198
REMARK   78  A    between atoms: _203  and  _205
REMARK   79  A    between atoms: _205  and  _206
REMARK   80  A    between atoms: _205  and  _208
REMARK   81  A    between atoms: _211  and  _213
REMARK   82  A    between atoms: _213  and  _214
REMARK   83  A    between atoms: _213  and  _216
REMARK   84  A    between atoms: _216  and  _217
REMARK   85  A    between atoms: _220  and  _222
REMARK   86  A    between atoms: _222  and  _223
REMARK   87  A    between atoms: _222  and  _225
REMARK   88  A    between atoms: _225  and  _226
REMARK   89  A    between atoms: _229  and  _231
REMARK   90  A    between atoms: _231  and  _232
REMARK   91  A    between atoms: _231  and  _234
REMARK   92  A    between atoms: _234  and  _235
REMARK   93  A    between atoms: _238  and  _240
REMARK   94  A    between atoms: _240  and  _241
REMARK   95  A    between atoms: _240  and  _243
REMARK   96  A    between atoms: _243  and  _244
REMARK   97  A    between atoms: _247  and  _249
REMARK   98  A    between atoms: _249  and  _250
REMARK   99  A    between atoms: _252  and  _254
REMARK  100  A    between atoms: _254  and  _255
REMARK  101  A    between atoms: _254  and  _257
REMARK  102  A    between atoms: _261  and  _263
REMARK  103  A    between atoms: _263  and  _264
REMARK  104  A    between atoms: _263  and  _266
REMARK  105  A    between atoms: _266  and  _267
REMARK  106  A    between atoms: _270  and  _272
REMARK  107  A    between atoms: _272  and  _273
REMARK  108  A    between atoms: _272  and  _275
REMARK  109  A    between atoms: _275  and  _276
REMARK  110  A    between atoms: _281  and  _283
REMARK  111  A    between atoms: _283  and  _284
REMARK  112  A    between atoms: _283  and  _286
REMARK  113  A    between atoms: _286  and  _287
REMARK  114  A    between atoms: _292  and  _293
REMARK  115  A    between atoms: _295  and  _297
REMARK  116  A    between atoms: _297  and  _298
REMARK  117  A    between atoms: _297  and  _300
REMARK  118  A    between atoms: _302  and  _304
REMARK  119  A    between atoms: _304  and  _305
REMARK  120  A    between atoms: _307  and  _309
REMARK  121  A    between atoms: _309  and  _310
REMARK  122  A    between atoms: _309  and  _312
REMARK  123  A    between atoms: _312  and  _313
REMARK  124  A    between atoms: _317  and  CO_451
REMARK  125  A    between atoms: _318  and  _320
REMARK  126  A    between atoms: _320  and  _321
REMARK  127  A    between atoms: _323  and  _325
REMARK  128  A    between atoms: _325  and  _326
REMARK  129  A    between atoms: _325  and  _328
REMARK  130  A    between atoms: _328  and  _329
REMARK  131  A    between atoms: _332  and  _334
REMARK  132  A    between atoms: _334  and  _335
REMARK  133  A    between atoms: _334  and  _337
REMARK  134  A    between atoms: _337  and  _338
REMARK  135  A    between atoms: _344  and  _346
REMARK  136  A    between atoms: _346  and  _347
REMARK  137  A    between atoms: _346  and  _349
REMARK  138  A    between atoms: _349  and  _350
REMARK  139  A    between atoms: _355  and  _357
REMARK  140  A    between atoms: _357  and  _358
REMARK  141  A    between atoms: _357  and  _360
REMARK  142  A    between atoms: _360  and  _361
REMARK  143  A    between atoms: _364  and  _366
REMARK  144  A    between atoms: _366  and  _367
REMARK  145  A    between atoms: _366  and  _369
REMARK  146  A    between atoms: _369  and  _370
REMARK  147  A    between atoms: _373  and  _375
REMARK  148  A    between atoms: _375  and  _376
REMARK  149  A    between atoms: _375  and  _378
REMARK  150  A    between atoms: _378  and  _379
REMARK  151  A    between atoms: _379  and  _380
REMARK  152  A    between atoms: _383  and  _385
REMARK  153  A    between atoms: _385  and  _386
REMARK  154  A    between atoms: _385  and  _388
REMARK  155  A    between atoms: _388  and  _389
REMARK  156  A    between atoms: _389  and  _390
REMARK  157  A    between atoms: _392  and  _394
REMARK  158  A    between atoms: _394  and  _395
REMARK  159  A    between atoms: _394  and  _397
REMARK  160  A    between atoms: _397  and  _398
REMARK  161  A    between atoms: _408  and  _410
REMARK  162  A    between atoms: _410  and  _411
REMARK  163  A    between atoms: _410  and  _413
REMARK  164  A    between atoms: _413  and  _414
REMARK  165  A    between atoms: _414  and  _415
REMARK  166  A    between atoms: _420  and  _422
REMARK  167  A    between atoms: _422  and  _423
REMARK  168  A    between atoms: _422  and  _425
REMARK  169  A    between atoms: _425  and  _426
REMARK  170  A    between atoms: _432  and  _434
REMARK  171  A    between atoms: _434  and  _435
REMARK  172  A    between atoms: _434  and  _437
REMARK  173  A    between atoms: _437  and  _438
REMARK  174  A    between atoms: _438  and  _439
REMARK  175  A    between atoms: _442  and  _444
REMARK  176  A    between atoms: _444  and  _445
REMARK  177  A    between atoms: _444  and  _447
REMARK  178  A    between atoms: _447  and  _448
REMARK                            x       y       z     vdW  Elec       q    Type
REMARK                         _______ _______ _______ _____ _____    ______ ____
ROOT
ATOM      1  O   HOH     1      16.955  -2.251   9.761  0.00  0.00    +0.000 OA
ENDROOT
TORSDOF 0
