REMARK  Name = ../refined-set-2016/2i4z/2i4z_pocket.pdb
REMARK  277 active torsions:
REMARK  status: ('A' for Active; 'I' for Inactive)
REMARK    1  A    between atoms: _1  and  _3
REMARK    2  A    between atoms: _3  and  _4
REMARK    3  A    between atoms: _3  and  _6
REMARK    4  A    between atoms: _6  and  _7
REMARK    5  A    between atoms: _12  and  _13
REMARK    6  A    between atoms: _15  and  _17
REMARK    7  A    between atoms: _17  and  _18
REMARK    8  A    between atoms: _17  and  _20
REMARK    9  A    between atoms: _20  and  _21
REMARK   10  A    between atoms: _23  and  _25
REMARK   11  A    between atoms: _25  and  _26
REMARK   12  A    between atoms: _25  and  _28
REMARK   13  A    between atoms: _28  and  _29
REMARK   14  A    between atoms: _36  and  _37
REMARK   15  A    between atoms: _42  and  _44
REMARK   16  A    between atoms: _44  and  _45
REMARK   17  A    between atoms: _44  and  _47
REMARK   18  A    between atoms: _47  and  _48
REMARK   19  A    between atoms: _51  and  _53
REMARK   20  A    between atoms: _53  and  _54
REMARK   21  A    between atoms: _53  and  _56
REMARK   22  A    between atoms: _56  and  _57
REMARK   23  A    between atoms: _63  and  _65
REMARK   24  A    between atoms: _65  and  _66
REMARK   25  A    between atoms: _65  and  _68
REMARK   26  A    between atoms: _68  and  _69
REMARK   27  A    between atoms: _72  and  _74
REMARK   28  A    between atoms: _74  and  _75
REMARK   29  A    between atoms: _74  and  _77
REMARK   30  A    between atoms: _77  and  _78
REMARK   31  A    between atoms: _81  and  _83
REMARK   32  A    between atoms: _83  and  _84
REMARK   33  A    between atoms: _83  and  _86
REMARK   34  A    between atoms: _86  and  _87
REMARK   35  A    between atoms: _93  and  _95
REMARK   36  A    between atoms: _95  and  _96
REMARK   37  A    between atoms: _95  and  _98
REMARK   38  A    between atoms: _98  and  _99
REMARK   39  A    between atoms: _99  and  _100
REMARK   40  A    between atoms: _105  and  _107
REMARK   41  A    between atoms: _107  and  _108
REMARK   42  A    between atoms: _110  and  _112
REMARK   43  A    between atoms: _112  and  _113
REMARK   44  A    between atoms: _112  and  _115
REMARK   45  A    between atoms: _117  and  _119
REMARK   46  A    between atoms: _119  and  _120
REMARK   47  A    between atoms: _119  and  _122
REMARK   48  A    between atoms: _122  and  _123
REMARK   49  A    between atoms: _123  and  _124
REMARK   50  A    between atoms: _129  and  _131
REMARK   51  A    between atoms: _131  and  _132
REMARK   52  A    between atoms: _131  and  _134
REMARK   53  A    between atoms: _134  and  _135
REMARK   54  A    between atoms: _141  and  _143
REMARK   55  A    between atoms: _143  and  _144
REMARK   56  A    between atoms: _143  and  _146
REMARK   57  A    between atoms: _146  and  _147
REMARK   58  A    between atoms: _147  and  _148
REMARK   59  A    between atoms: _148  and  _149
REMARK   60  A    between atoms: _158  and  _160
REMARK   61  A    between atoms: _160  and  _161
REMARK   62  A    between atoms: _160  and  _163
REMARK   63  A    between atoms: _163  and  _164
REMARK   64  A    between atoms: _166  and  _168
REMARK   65  A    between atoms: _168  and  _169
REMARK   66  A    between atoms: _168  and  _171
REMARK   67  A    between atoms: _174  and  _176
REMARK   68  A    between atoms: _176  and  _177
REMARK   69  A    between atoms: _176  and  _179
REMARK   70  A    between atoms: _179  and  _180
REMARK   71  A    between atoms: _180  and  _181
REMARK   72  A    between atoms: _184  and  _186
REMARK   73  A    between atoms: _186  and  _187
REMARK   74  A    between atoms: _190  and  _192
REMARK   75  A    between atoms: _192  and  _193
REMARK   76  A    between atoms: _192  and  _195
REMARK   77  A    between atoms: _198  and  _200
REMARK   78  A    between atoms: _200  and  _201
REMARK   79  A    between atoms: _200  and  _203
REMARK   80  A    between atoms: _203  and  _204
REMARK   81  A    between atoms: _204  and  _205
REMARK   82  A    between atoms: _210  and  _212
REMARK   83  A    between atoms: _212  and  _213
REMARK   84  A    between atoms: _212  and  _215
REMARK   85  A    between atoms: _215  and  _216
REMARK   86  A    between atoms: _216  and  _217
REMARK   87  A    between atoms: _220  and  _222
REMARK   88  A    between atoms: _222  and  _223
REMARK   89  A    between atoms: _222  and  _225
REMARK   90  A    between atoms: _225  and  _226
REMARK   91  A    between atoms: _229  and  _231
REMARK   92  A    between atoms: _231  and  _232
REMARK   93  A    between atoms: _231  and  _234
REMARK   94  A    between atoms: _234  and  _235
REMARK   95  A    between atoms: _238  and  _240
REMARK   96  A    between atoms: _240  and  _241
REMARK   97  A    between atoms: _240  and  _243
REMARK   98  A    between atoms: _246  and  _248
REMARK   99  A    between atoms: _248  and  _249
REMARK  100  A    between atoms: _248  and  _251
REMARK  101  A    between atoms: _251  and  _252
REMARK  102  A    between atoms: _257  and  _259
REMARK  103  A    between atoms: _259  and  _260
REMARK  104  A    between atoms: _259  and  _262
REMARK  105  A    between atoms: _262  and  _263
REMARK  106  A    between atoms: _263  and  _264
REMARK  107  A    between atoms: _267  and  _269
REMARK  108  A    between atoms: _269  and  _270
REMARK  109  A    between atoms: _269  and  _272
REMARK  110  A    between atoms: _272  and  _273
REMARK  111  A    between atoms: _276  and  _278
REMARK  112  A    between atoms: _278  and  _279
REMARK  113  A    between atoms: _278  and  _281
REMARK  114  A    between atoms: _281  and  _282
REMARK  115  A    between atoms: _285  and  _287
REMARK  116  A    between atoms: _287  and  _288
REMARK  117  A    between atoms: _287  and  _290
REMARK  118  A    between atoms: _290  and  _291
REMARK  119  A    between atoms: _296  and  _297
REMARK  120  A    between atoms: _299  and  _301
REMARK  121  A    between atoms: _301  and  _302
REMARK  122  A    between atoms: _301  and  _304
REMARK  123  A    between atoms: _304  and  _305
REMARK  124  A    between atoms: _308  and  _310
REMARK  125  A    between atoms: _310  and  _311
REMARK  126  A    between atoms: _310  and  _313
REMARK  127  A    between atoms: _313  and  _314
REMARK  128  A    between atoms: _314  and  _315
REMARK  129  A    between atoms: _317  and  _319
REMARK  130  A    between atoms: _319  and  _320
REMARK  131  A    between atoms: _319  and  _322
REMARK  132  A    between atoms: _322  and  _323
REMARK  133  A    between atoms: _326  and  _328
REMARK  134  A    between atoms: _328  and  _329
REMARK  135  A    between atoms: _332  and  _334
REMARK  136  A    between atoms: _334  and  _335
REMARK  137  A    between atoms: _334  and  _337
REMARK  138  A    between atoms: _337  and  _338
REMARK  139  A    between atoms: _340  and  _342
REMARK  140  A    between atoms: _342  and  _343
REMARK  141  A    between atoms: _342  and  _345
REMARK  142  A    between atoms: _345  and  _346
REMARK  143  A    between atoms: _349  and  _351
REMARK  144  A    between atoms: _351  and  _352
REMARK  145  A    between atoms: _351  and  _354
REMARK  146  A    between atoms: _354  and  _355
REMARK  147  A    between atoms: _355  and  _356
REMARK  148  A    between atoms: _358  and  _360
REMARK  149  A    between atoms: _360  and  _361
REMARK  150  A    between atoms: _360  and  _363
REMARK  151  A    between atoms: _366  and  _368
REMARK  152  A    between atoms: _368  and  _369
REMARK  153  A    between atoms: _368  and  _371
REMARK  154  A    between atoms: _371  and  _372
REMARK  155  A    between atoms: _375  and  _377
REMARK  156  A    between atoms: _377  and  _378
REMARK  157  A    between atoms: _377  and  _380
REMARK  158  A    between atoms: _380  and  _381
REMARK  159  A    between atoms: _384  and  _386
REMARK  160  A    between atoms: _386  and  _387
REMARK  161  A    between atoms: _386  and  _389
REMARK  162  A    between atoms: _389  and  _390
REMARK  163  A    between atoms: _392  and  _394
REMARK  164  A    between atoms: _394  and  _395
REMARK  165  A    between atoms: _394  and  _397
REMARK  166  A    between atoms: _397  and  _398
REMARK  167  A    between atoms: _398  and  _399
REMARK  168  A    between atoms: _402  and  _404
REMARK  169  A    between atoms: _404  and  _405
REMARK  170  A    between atoms: _404  and  _407
REMARK  171  A    between atoms: _407  and  _408
REMARK  172  A    between atoms: _414  and  _416
REMARK  173  A    between atoms: _416  and  _417
REMARK  174  A    between atoms: _416  and  _419
REMARK  175  A    between atoms: _419  and  _420
REMARK  176  A    between atoms: _420  and  _421
REMARK  177  A    between atoms: _423  and  _425
REMARK  178  A    between atoms: _425  and  _426
REMARK  179  A    between atoms: _425  and  _428
REMARK  180  A    between atoms: _428  and  _429
REMARK  181  A    between atoms: _432  and  _434
REMARK  182  A    between atoms: _434  and  _435
REMARK  183  A    between atoms: _434  and  _437
REMARK  184  A    between atoms: _437  and  _438
REMARK  185  A    between atoms: _441  and  _443
REMARK  186  A    between atoms: _443  and  _444
REMARK  187  A    between atoms: _443  and  _446
REMARK  188  A    between atoms: _446  and  _447
REMARK  189  A    between atoms: _450  and  _452
REMARK  190  A    between atoms: _452  and  _453
REMARK  191  A    between atoms: _452  and  _455
REMARK  192  A    between atoms: _455  and  _456
REMARK  193  A    between atoms: _462  and  _464
REMARK  194  A    between atoms: _464  and  _465
REMARK  195  A    between atoms: _464  and  _467
REMARK  196  A    between atoms: _467  and  _468
REMARK  197  A    between atoms: _474  and  _476
REMARK  198  A    between atoms: _476  and  _477
REMARK  199  A    between atoms: _476  and  _479
REMARK  200  A    between atoms: _479  and  _480
REMARK  201  A    between atoms: _480  and  _481
REMARK  202  A    between atoms: _483  and  _485
REMARK  203  A    between atoms: _485  and  _486
REMARK  204  A    between atoms: _485  and  _488
REMARK  205  A    between atoms: _488  and  _489
REMARK  206  A    between atoms: _489  and  _490
REMARK  207  A    between atoms: _490  and  _491
REMARK  208  A    between atoms: _491  and  _492
REMARK  209  A    between atoms: _496  and  _498
REMARK  210  A    between atoms: _498  and  _499
REMARK  211  A    between atoms: _498  and  _501
REMARK  212  A    between atoms: _501  and  _502
REMARK  213  A    between atoms: _508  and  _510
REMARK  214  A    between atoms: _510  and  _511
REMARK  215  A    between atoms: _510  and  _513
REMARK  216  A    between atoms: _513  and  _514
REMARK  217  A    between atoms: _517  and  _519
REMARK  218  A    between atoms: _519  and  _520
REMARK  219  A    between atoms: _519  and  _522
REMARK  220  A    between atoms: _522  and  _523
REMARK  221  A    between atoms: _526  and  _528
REMARK  222  A    between atoms: _528  and  _529
REMARK  223  A    between atoms: _528  and  _531
REMARK  224  A    between atoms: _534  and  _536
REMARK  225  A    between atoms: _536  and  _537
REMARK  226  A    between atoms: _536  and  _539
REMARK  227  A    between atoms: _539  and  _540
REMARK  228  A    between atoms: _545  and  _547
REMARK  229  A    between atoms: _547  and  _548
REMARK  230  A    between atoms: _547  and  _550
REMARK  231  A    between atoms: _553  and  _555
REMARK  232  A    between atoms: _555  and  _556
REMARK  233  A    between atoms: _555  and  _558
REMARK  234  A    between atoms: _558  and  _559
REMARK  235  A    between atoms: _562  and  _564
REMARK  236  A    between atoms: _564  and  _565
REMARK  237  A    between atoms: _564  and  _567
REMARK  238  A    between atoms: _567  and  _568
REMARK  239  A    between atoms: _571  and  _573
REMARK  240  A    between atoms: _573  and  _574
REMARK  241  A    between atoms: _573  and  _576
REMARK  242  A    between atoms: _576  and  _577
REMARK  243  A    between atoms: _580  and  _582
REMARK  244  A    between atoms: _582  and  _583
REMARK  245  A    between atoms: _582  and  _585
REMARK  246  A    between atoms: _585  and  _586
REMARK  247  A    between atoms: _586  and  _587
REMARK  248  A    between atoms: _589  and  _591
REMARK  249  A    between atoms: _591  and  _592
REMARK  250  A    between atoms: _591  and  _594
REMARK  251  A    between atoms: _594  and  _595
REMARK  252  A    between atoms: _597  and  _599
REMARK  253  A    between atoms: _599  and  _600
REMARK  254  A    between atoms: _599  and  _602
REMARK  255  A    between atoms: _602  and  _603
REMARK  256  A    between atoms: _606  and  _608
REMARK  257  A    between atoms: _608  and  _609
REMARK  258  A    between atoms: _608  and  _611
REMARK  259  A    between atoms: _611  and  _612
REMARK  260  A    between atoms: _617  and  _619
REMARK  261  A    between atoms: _619  and  _620
REMARK  262  A    between atoms: _619  and  _622
REMARK  263  A    between atoms: _622  and  _623
REMARK  264  A    between atoms: _626  and  _628
REMARK  265  A    between atoms: _628  and  _629
REMARK  266  A    between atoms: _628  and  _631
REMARK  267  A    between atoms: _631  and  _632
REMARK  268  A    between atoms: _632  and  _633
REMARK  269  A    between atoms: _638  and  _640
REMARK  270  A    between atoms: _640  and  _641
REMARK  271  A    between atoms: _640  and  _643
REMARK  272  A    between atoms: _643  and  _644
REMARK  273  A    between atoms: _647  and  _649
REMARK  274  A    between atoms: _649  and  _650
REMARK  275  A    between atoms: _649  and  _652
REMARK  276  A    between atoms: _652  and  _653
REMARK  277  A    between atoms: _658  and  _659
REMARK                            x       y       z     vdW  Elec       q    Type
REMARK                         _______ _______ _______ _____ _____    ______ ____
ROOT
ATOM      1  CG  TYR A   1       2.002   7.376  15.900  0.00  0.00    -0.020 A 
ATOM      2  CD2 TYR A   1       3.291   7.222  16.420  0.00  0.00    -0.001 A 
ATOM      3  CE2 TYR A   1       4.391   7.041  15.583  0.00  0.00    +0.036 A 
ATOM      4  CZ  TYR A   1       4.213   7.016  14.198  0.00  0.00    +0.134 A 
ATOM      5  CE1 TYR A   1       2.947   7.177  13.657  0.00  0.00    +0.036 A 
ATOM      6  CD1 TYR A   1       1.844   7.359  14.513  0.00  0.00    -0.001 A 
ENDROOT
BRANCH   4   7
ATOM      7  OH  TYR A   1       5.302   6.826  13.354  0.00  0.00    -0.506 OA
ATOM      8  HH  TYR A   1       5.162   6.007  12.815  0.00  0.00    +0.292 HD
ENDBRANCH   4   7
BRANCH   1   9
ATOM      9  CB  TYR A   1       0.799   7.436  16.811  0.00  0.00    +0.051 C 
BRANCH   9  10
ATOM     10  CA  TYR A   1       0.221   8.823  17.132  0.00  0.00    +0.137 C 
BRANCH  10  11
ATOM     11  N   TYR A   1      -1.022   8.638  17.866  0.00  0.00    -0.239 NA
ATOM     12  H   TYR A   1      -1.405   7.675  17.951  0.00  0.00    +0.142 HD
ENDBRANCH  10  11
BRANCH  10  13
ATOM     13  C   TYR A   1      -0.065   9.623  15.854  0.00  0.00    +0.224 C 
ATOM     14  O   TYR A   1       0.640  10.584  15.549  0.00  0.00    -0.287 OA
ENDBRANCH  10  13
ENDBRANCH   9  10
ENDBRANCH   1   9
TORSDOF 5
REMARK  Name = ../refined-set-2016/2i4z/2i4z_pocket.pdb
REMARK  277 active torsions:
REMARK  status: ('A' for Active; 'I' for Inactive)
REMARK    1  A    between atoms: _1  and  _3
REMARK    2  A    between atoms: _3  and  _4
REMARK    3  A    between atoms: _3  and  _6
REMARK    4  A    between atoms: _6  and  _7
REMARK    5  A    between atoms: _12  and  _13
REMARK    6  A    between atoms: _15  and  _17
REMARK    7  A    between atoms: _17  and  _18
REMARK    8  A    between atoms: _17  and  _20
REMARK    9  A    between atoms: _20  and  _21
REMARK   10  A    between atoms: _23  and  _25
REMARK   11  A    between atoms: _25  and  _26
REMARK   12  A    between atoms: _25  and  _28
REMARK   13  A    between atoms: _28  and  _29
REMARK   14  A    between atoms: _36  and  _37
REMARK   15  A    between atoms: _42  and  _44
REMARK   16  A    between atoms: _44  and  _45
REMARK   17  A    between atoms: _44  and  _47
REMARK   18  A    between atoms: _47  and  _48
REMARK   19  A    between atoms: _51  and  _53
REMARK   20  A    between atoms: _53  and  _54
REMARK   21  A    between atoms: _53  and  _56
REMARK   22  A    between atoms: _56  and  _57
REMARK   23  A    between atoms: _63  and  _65
REMARK   24  A    between atoms: _65  and  _66
REMARK   25  A    between atoms: _65  and  _68
REMARK   26  A    between atoms: _68  and  _69
REMARK   27  A    between atoms: _72  and  _74
REMARK   28  A    between atoms: _74  and  _75
REMARK   29  A    between atoms: _74  and  _77
REMARK   30  A    between atoms: _77  and  _78
REMARK   31  A    between atoms: _81  and  _83
REMARK   32  A    between atoms: _83  and  _84
REMARK   33  A    between atoms: _83  and  _86
REMARK   34  A    between atoms: _86  and  _87
REMARK   35  A    between atoms: _93  and  _95
REMARK   36  A    between atoms: _95  and  _96
REMARK   37  A    between atoms: _95  and  _98
REMARK   38  A    between atoms: _98  and  _99
REMARK   39  A    between atoms: _99  and  _100
REMARK   40  A    between atoms: _105  and  _107
REMARK   41  A    between atoms: _107  and  _108
REMARK   42  A    between atoms: _110  and  _112
REMARK   43  A    between atoms: _112  and  _113
REMARK   44  A    between atoms: _112  and  _115
REMARK   45  A    between atoms: _117  and  _119
REMARK   46  A    between atoms: _119  and  _120
REMARK   47  A    between atoms: _119  and  _122
REMARK   48  A    between atoms: _122  and  _123
REMARK   49  A    between atoms: _123  and  _124
REMARK   50  A    between atoms: _129  and  _131
REMARK   51  A    between atoms: _131  and  _132
REMARK   52  A    between atoms: _131  and  _134
REMARK   53  A    between atoms: _134  and  _135
REMARK   54  A    between atoms: _141  and  _143
REMARK   55  A    between atoms: _143  and  _144
REMARK   56  A    between atoms: _143  and  _146
REMARK   57  A    between atoms: _146  and  _147
REMARK   58  A    between atoms: _147  and  _148
REMARK   59  A    between atoms: _148  and  _149
REMARK   60  A    between atoms: _158  and  _160
REMARK   61  A    between atoms: _160  and  _161
REMARK   62  A    between atoms: _160  and  _163
REMARK   63  A    between atoms: _163  and  _164
REMARK   64  A    between atoms: _166  and  _168
REMARK   65  A    between atoms: _168  and  _169
REMARK   66  A    between atoms: _168  and  _171
REMARK   67  A    between atoms: _174  and  _176
REMARK   68  A    between atoms: _176  and  _177
REMARK   69  A    between atoms: _176  and  _179
REMARK   70  A    between atoms: _179  and  _180
REMARK   71  A    between atoms: _180  and  _181
REMARK   72  A    between atoms: _184  and  _186
REMARK   73  A    between atoms: _186  and  _187
REMARK   74  A    between atoms: _190  and  _192
REMARK   75  A    between atoms: _192  and  _193
REMARK   76  A    between atoms: _192  and  _195
REMARK   77  A    between atoms: _198  and  _200
REMARK   78  A    between atoms: _200  and  _201
REMARK   79  A    between atoms: _200  and  _203
REMARK   80  A    between atoms: _203  and  _204
REMARK   81  A    between atoms: _204  and  _205
REMARK   82  A    between atoms: _210  and  _212
REMARK   83  A    between atoms: _212  and  _213
REMARK   84  A    between atoms: _212  and  _215
REMARK   85  A    between atoms: _215  and  _216
REMARK   86  A    between atoms: _216  and  _217
REMARK   87  A    between atoms: _220  and  _222
REMARK   88  A    between atoms: _222  and  _223
REMARK   89  A    between atoms: _222  and  _225
REMARK   90  A    between atoms: _225  and  _226
REMARK   91  A    between atoms: _229  and  _231
REMARK   92  A    between atoms: _231  and  _232
REMARK   93  A    between atoms: _231  and  _234
REMARK   94  A    between atoms: _234  and  _235
REMARK   95  A    between atoms: _238  and  _240
REMARK   96  A    between atoms: _240  and  _241
REMARK   97  A    between atoms: _240  and  _243
REMARK   98  A    between atoms: _246  and  _248
REMARK   99  A    between atoms: _248  and  _249
REMARK  100  A    between atoms: _248  and  _251
REMARK  101  A    between atoms: _251  and  _252
REMARK  102  A    between atoms: _257  and  _259
REMARK  103  A    between atoms: _259  and  _260
REMARK  104  A    between atoms: _259  and  _262
REMARK  105  A    between atoms: _262  and  _263
REMARK  106  A    between atoms: _263  and  _264
REMARK  107  A    between atoms: _267  and  _269
REMARK  108  A    between atoms: _269  and  _270
REMARK  109  A    between atoms: _269  and  _272
REMARK  110  A    between atoms: _272  and  _273
REMARK  111  A    between atoms: _276  and  _278
REMARK  112  A    between atoms: _278  and  _279
REMARK  113  A    between atoms: _278  and  _281
REMARK  114  A    between atoms: _281  and  _282
REMARK  115  A    between atoms: _285  and  _287
REMARK  116  A    between atoms: _287  and  _288
REMARK  117  A    between atoms: _287  and  _290
REMARK  118  A    between atoms: _290  and  _291
REMARK  119  A    between atoms: _296  and  _297
REMARK  120  A    between atoms: _299  and  _301
REMARK  121  A    between atoms: _301  and  _302
REMARK  122  A    between atoms: _301  and  _304
REMARK  123  A    between atoms: _304  and  _305
REMARK  124  A    between atoms: _308  and  _310
REMARK  125  A    between atoms: _310  and  _311
REMARK  126  A    between atoms: _310  and  _313
REMARK  127  A    between atoms: _313  and  _314
REMARK  128  A    between atoms: _314  and  _315
REMARK  129  A    between atoms: _317  and  _319
REMARK  130  A    between atoms: _319  and  _320
REMARK  131  A    between atoms: _319  and  _322
REMARK  132  A    between atoms: _322  and  _323
REMARK  133  A    between atoms: _326  and  _328
REMARK  134  A    between atoms: _328  and  _329
REMARK  135  A    between atoms: _332  and  _334
REMARK  136  A    between atoms: _334  and  _335
REMARK  137  A    between atoms: _334  and  _337
REMARK  138  A    between atoms: _337  and  _338
REMARK  139  A    between atoms: _340  and  _342
REMARK  140  A    between atoms: _342  and  _343
REMARK  141  A    between atoms: _342  and  _345
REMARK  142  A    between atoms: _345  and  _346
REMARK  143  A    between atoms: _349  and  _351
REMARK  144  A    between atoms: _351  and  _352
REMARK  145  A    between atoms: _351  and  _354
REMARK  146  A    between atoms: _354  and  _355
REMARK  147  A    between atoms: _355  and  _356
REMARK  148  A    between atoms: _358  and  _360
REMARK  149  A    between atoms: _360  and  _361
REMARK  150  A    between atoms: _360  and  _363
REMARK  151  A    between atoms: _366  and  _368
REMARK  152  A    between atoms: _368  and  _369
REMARK  153  A    between atoms: _368  and  _371
REMARK  154  A    between atoms: _371  and  _372
REMARK  155  A    between atoms: _375  and  _377
REMARK  156  A    between atoms: _377  and  _378
REMARK  157  A    between atoms: _377  and  _380
REMARK  158  A    between atoms: _380  and  _381
REMARK  159  A    between atoms: _384  and  _386
REMARK  160  A    between atoms: _386  and  _387
REMARK  161  A    between atoms: _386  and  _389
REMARK  162  A    between atoms: _389  and  _390
REMARK  163  A    between atoms: _392  and  _394
REMARK  164  A    between atoms: _394  and  _395
REMARK  165  A    between atoms: _394  and  _397
REMARK  166  A    between atoms: _397  and  _398
REMARK  167  A    between atoms: _398  and  _399
REMARK  168  A    between atoms: _402  and  _404
REMARK  169  A    between atoms: _404  and  _405
REMARK  170  A    between atoms: _404  and  _407
REMARK  171  A    between atoms: _407  and  _408
REMARK  172  A    between atoms: _414  and  _416
REMARK  173  A    between atoms: _416  and  _417
REMARK  174  A    between atoms: _416  and  _419
REMARK  175  A    between atoms: _419  and  _420
REMARK  176  A    between atoms: _420  and  _421
REMARK  177  A    between atoms: _423  and  _425
REMARK  178  A    between atoms: _425  and  _426
REMARK  179  A    between atoms: _425  and  _428
REMARK  180  A    between atoms: _428  and  _429
REMARK  181  A    between atoms: _432  and  _434
REMARK  182  A    between atoms: _434  and  _435
REMARK  183  A    between atoms: _434  and  _437
REMARK  184  A    between atoms: _437  and  _438
REMARK  185  A    between atoms: _441  and  _443
REMARK  186  A    between atoms: _443  and  _444
REMARK  187  A    between atoms: _443  and  _446
REMARK  188  A    between atoms: _446  and  _447
REMARK  189  A    between atoms: _450  and  _452
REMARK  190  A    between atoms: _452  and  _453
REMARK  191  A    between atoms: _452  and  _455
REMARK  192  A    between atoms: _455  and  _456
REMARK  193  A    between atoms: _462  and  _464
REMARK  194  A    between atoms: _464  and  _465
REMARK  195  A    between atoms: _464  and  _467
REMARK  196  A    between atoms: _467  and  _468
REMARK  197  A    between atoms: _474  and  _476
REMARK  198  A    between atoms: _476  and  _477
REMARK  199  A    between atoms: _476  and  _479
REMARK  200  A    between atoms: _479  and  _480
REMARK  201  A    between atoms: _480  and  _481
REMARK  202  A    between atoms: _483  and  _485
REMARK  203  A    between atoms: _485  and  _486
REMARK  204  A    between atoms: _485  and  _488
REMARK  205  A    between atoms: _488  and  _489
REMARK  206  A    between atoms: _489  and  _490
REMARK  207  A    between atoms: _490  and  _491
REMARK  208  A    between atoms: _491  and  _492
REMARK  209  A    between atoms: _496  and  _498
REMARK  210  A    between atoms: _498  and  _499
REMARK  211  A    between atoms: _498  and  _501
REMARK  212  A    between atoms: _501  and  _502
REMARK  213  A    between atoms: _508  and  _510
REMARK  214  A    between atoms: _510  and  _511
REMARK  215  A    between atoms: _510  and  _513
REMARK  216  A    between atoms: _513  and  _514
REMARK  217  A    between atoms: _517  and  _519
REMARK  218  A    between atoms: _519  and  _520
REMARK  219  A    between atoms: _519  and  _522
REMARK  220  A    between atoms: _522  and  _523
REMARK  221  A    between atoms: _526  and  _528
REMARK  222  A    between atoms: _528  and  _529
REMARK  223  A    between atoms: _528  and  _531
REMARK  224  A    between atoms: _534  and  _536
REMARK  225  A    between atoms: _536  and  _537
REMARK  226  A    between atoms: _536  and  _539
REMARK  227  A    between atoms: _539  and  _540
REMARK  228  A    between atoms: _545  and  _547
REMARK  229  A    between atoms: _547  and  _548
REMARK  230  A    between atoms: _547  and  _550
REMARK  231  A    between atoms: _553  and  _555
REMARK  232  A    between atoms: _555  and  _556
REMARK  233  A    between atoms: _555  and  _558
REMARK  234  A    between atoms: _558  and  _559
REMARK  235  A    between atoms: _562  and  _564
REMARK  236  A    between atoms: _564  and  _565
REMARK  237  A    between atoms: _564  and  _567
REMARK  238  A    between atoms: _567  and  _568
REMARK  239  A    between atoms: _571  and  _573
REMARK  240  A    between atoms: _573  and  _574
REMARK  241  A    between atoms: _573  and  _576
REMARK  242  A    between atoms: _576  and  _577
REMARK  243  A    between atoms: _580  and  _582
REMARK  244  A    between atoms: _582  and  _583
REMARK  245  A    between atoms: _582  and  _585
REMARK  246  A    between atoms: _585  and  _586
REMARK  247  A    between atoms: _586  and  _587
REMARK  248  A    between atoms: _589  and  _591
REMARK  249  A    between atoms: _591  and  _592
REMARK  250  A    between atoms: _591  and  _594
REMARK  251  A    between atoms: _594  and  _595
REMARK  252  A    between atoms: _597  and  _599
REMARK  253  A    between atoms: _599  and  _600
REMARK  254  A    between atoms: _599  and  _602
REMARK  255  A    between atoms: _602  and  _603
REMARK  256  A    between atoms: _606  and  _608
REMARK  257  A    between atoms: _608  and  _609
REMARK  258  A    between atoms: _608  and  _611
REMARK  259  A    between atoms: _611  and  _612
REMARK  260  A    between atoms: _617  and  _619
REMARK  261  A    between atoms: _619  and  _620
REMARK  262  A    between atoms: _619  and  _622
REMARK  263  A    between atoms: _622  and  _623
REMARK  264  A    between atoms: _626  and  _628
REMARK  265  A    between atoms: _628  and  _629
REMARK  266  A    between atoms: _628  and  _631
REMARK  267  A    between atoms: _631  and  _632
REMARK  268  A    between atoms: _632  and  _633
REMARK  269  A    between atoms: _638  and  _640
REMARK  270  A    between atoms: _640  and  _641
REMARK  271  A    between atoms: _640  and  _643
REMARK  272  A    between atoms: _643  and  _644
REMARK  273  A    between atoms: _647  and  _649
REMARK  274  A    between atoms: _649  and  _650
REMARK  275  A    between atoms: _649  and  _652
REMARK  276  A    between atoms: _652  and  _653
REMARK  277  A    between atoms: _658  and  _659
REMARK                            x       y       z     vdW  Elec       q    Type
REMARK                         _______ _______ _______ _____ _____    ______ ____
ROOT
ATOM      1  CA  PHE A   2       2.817  13.485  14.558  0.00  0.00    +0.153 C 
ENDROOT
BRANCH   1   2
ATOM      2  C   PHE A   2       2.360  13.791  13.133  0.00  0.00    +0.244 C 
ATOM      3  N   PRO A   3       2.640  15.013  12.649  0.00  0.00    -0.272 N 
ATOM      4  CD  PRO A   3       3.337  16.062  13.408  0.00  0.00    +0.094 C 
ATOM      5  CG  PRO A   3       2.821  17.311  12.742  0.00  0.00    +0.024 C 
ATOM      6  CB  PRO A   3       2.843  16.931  11.301  0.00  0.00    +0.031 C 
ATOM      7  CA  PRO A   3       2.284  15.508  11.311  0.00  0.00    +0.152 C 
ATOM      8  O   PHE A   2       1.766  12.954  12.471  0.00  0.00    -0.273 OA
BRANCH   7   9
ATOM      9  C   PRO A   3       2.853  14.693  10.166  0.00  0.00    +0.241 C 
ATOM     10  N   LEU A   4       4.070  14.194  10.331  0.00  0.00    -0.298 N 
ATOM     11  H   LEU A   4       4.581  14.357  11.222  0.00  0.00    +0.150 HD
ATOM     12  O   PRO A   3       2.207  14.533   9.143  0.00  0.00    -0.273 OA
BRANCH  10  13
ATOM     13  CA  LEU A   4       4.690  13.422   9.272  0.00  0.00    +0.137 C 
BRANCH  13  14
ATOM     14  C   LEU A   4       4.915  11.967   9.698  0.00  0.00    +0.227 C 
ATOM     15  O   LEU A   4       5.881  11.660  10.394  0.00  0.00    -0.286 OA
ENDBRANCH  13  14
BRANCH  13  16
ATOM     16  CB  LEU A   4       6.014  14.082   8.854  0.00  0.00    +0.028 C 
BRANCH  16  17
ATOM     17  CG  LEU A   4       6.806  13.360   7.749  0.00  0.00    +0.002 C 
ATOM     18  CD2 LEU A   4       8.075  14.148   7.414  0.00  0.00    +0.000 C 
ATOM     19  CD1 LEU A   4       5.943  13.199   6.503  0.00  0.00    +0.000 C 
ENDBRANCH  16  17
ENDBRANCH  13  16
ENDBRANCH  10  13
ENDBRANCH   7   9
ENDBRANCH   1   2
BRANCH   1  22
ATOM     20  C   SER A   1       1.483  14.203  16.452  0.00  0.00    +0.241 C 
ATOM     21  O   SER A   1       2.194  15.182  16.632  0.00  0.00    -0.274 OA
ATOM     22  N   PHE A   2       1.692  13.337  15.467  0.00  0.00    -0.297 N 
ATOM     23  H   PHE A   2       1.038  12.538  15.344  0.00  0.00    +0.150 HD
BRANCH  20  24
ATOM     24  CA  SER A   1       0.307  13.932  17.370  0.00  0.00    +0.174 C 
BRANCH  24  25
ATOM     25  N   SER A   1      -0.773  13.151  16.781  0.00  0.00    -0.236 NA
ATOM     26  H   SER A   1      -0.701  12.114  16.736  0.00  0.00    +0.142 HD
ENDBRANCH  24  25
BRANCH  24  27
ATOM     27  CB  SER A   1       0.812  13.246  18.644  0.00  0.00    +0.163 C 
BRANCH  27  28
ATOM     28  OG  SER A   1      -0.218  13.143  19.611  0.00  0.00    -0.380 OA
ATOM     29  H   SER A   1      -0.966  12.611  19.240  0.00  0.00    +0.211 HD
ENDBRANCH  27  28
ENDBRANCH  24  27
ENDBRANCH  20  24
ENDBRANCH   1  22
BRANCH   1  30
ATOM     30  CB  PHE A   2       3.670  12.213  14.606  0.00  0.00    +0.055 C 
BRANCH  30  31
ATOM     31  CG  PHE A   2       4.168  11.871  15.999  0.00  0.00    -0.020 A 
ATOM     32  CD2 PHE A   2       3.674  10.758  16.677  0.00  0.00    -0.004 A 
ATOM     33  CE2 PHE A   2       4.087  10.470  17.991  0.00  0.00    -0.000 A 
ATOM     34  CZ  PHE A   2       5.009  11.307  18.635  0.00  0.00    -0.000 A 
ATOM     35  CE1 PHE A   2       5.516  12.426  17.958  0.00  0.00    -0.000 A 
ATOM     36  CD1 PHE A   2       5.093  12.698  16.649  0.00  0.00    -0.004 A 
ENDBRANCH  30  31
ENDBRANCH   1  30
TORSDOF 13
REMARK  Name = ../refined-set-2016/2i4z/2i4z_pocket.pdb
REMARK  277 active torsions:
REMARK  status: ('A' for Active; 'I' for Inactive)
REMARK    1  A    between atoms: _1  and  _3
REMARK    2  A    between atoms: _3  and  _4
REMARK    3  A    between atoms: _3  and  _6
REMARK    4  A    between atoms: _6  and  _7
REMARK    5  A    between atoms: _12  and  _13
REMARK    6  A    between atoms: _15  and  _17
REMARK    7  A    between atoms: _17  and  _18
REMARK    8  A    between atoms: _17  and  _20
REMARK    9  A    between atoms: _20  and  _21
REMARK   10  A    between atoms: _23  and  _25
REMARK   11  A    between atoms: _25  and  _26
REMARK   12  A    between atoms: _25  and  _28
REMARK   13  A    between atoms: _28  and  _29
REMARK   14  A    between atoms: _36  and  _37
REMARK   15  A    between atoms: _42  and  _44
REMARK   16  A    between atoms: _44  and  _45
REMARK   17  A    between atoms: _44  and  _47
REMARK   18  A    between atoms: _47  and  _48
REMARK   19  A    between atoms: _51  and  _53
REMARK   20  A    between atoms: _53  and  _54
REMARK   21  A    between atoms: _53  and  _56
REMARK   22  A    between atoms: _56  and  _57
REMARK   23  A    between atoms: _63  and  _65
REMARK   24  A    between atoms: _65  and  _66
REMARK   25  A    between atoms: _65  and  _68
REMARK   26  A    between atoms: _68  and  _69
REMARK   27  A    between atoms: _72  and  _74
REMARK   28  A    between atoms: _74  and  _75
REMARK   29  A    between atoms: _74  and  _77
REMARK   30  A    between atoms: _77  and  _78
REMARK   31  A    between atoms: _81  and  _83
REMARK   32  A    between atoms: _83  and  _84
REMARK   33  A    between atoms: _83  and  _86
REMARK   34  A    between atoms: _86  and  _87
REMARK   35  A    between atoms: _93  and  _95
REMARK   36  A    between atoms: _95  and  _96
REMARK   37  A    between atoms: _95  and  _98
REMARK   38  A    between atoms: _98  and  _99
REMARK   39  A    between atoms: _99  and  _100
REMARK   40  A    between atoms: _105  and  _107
REMARK   41  A    between atoms: _107  and  _108
REMARK   42  A    between atoms: _110  and  _112
REMARK   43  A    between atoms: _112  and  _113
REMARK   44  A    between atoms: _112  and  _115
REMARK   45  A    between atoms: _117  and  _119
REMARK   46  A    between atoms: _119  and  _120
REMARK   47  A    between atoms: _119  and  _122
REMARK   48  A    between atoms: _122  and  _123
REMARK   49  A    between atoms: _123  and  _124
REMARK   50  A    between atoms: _129  and  _131
REMARK   51  A    between atoms: _131  and  _132
REMARK   52  A    between atoms: _131  and  _134
REMARK   53  A    between atoms: _134  and  _135
REMARK   54  A    between atoms: _141  and  _143
REMARK   55  A    between atoms: _143  and  _144
REMARK   56  A    between atoms: _143  and  _146
REMARK   57  A    between atoms: _146  and  _147
REMARK   58  A    between atoms: _147  and  _148
REMARK   59  A    between atoms: _148  and  _149
REMARK   60  A    between atoms: _158  and  _160
REMARK   61  A    between atoms: _160  and  _161
REMARK   62  A    between atoms: _160  and  _163
REMARK   63  A    between atoms: _163  and  _164
REMARK   64  A    between atoms: _166  and  _168
REMARK   65  A    between atoms: _168  and  _169
REMARK   66  A    between atoms: _168  and  _171
REMARK   67  A    between atoms: _174  and  _176
REMARK   68  A    between atoms: _176  and  _177
REMARK   69  A    between atoms: _176  and  _179
REMARK   70  A    between atoms: _179  and  _180
REMARK   71  A    between atoms: _180  and  _181
REMARK   72  A    between atoms: _184  and  _186
REMARK   73  A    between atoms: _186  and  _187
REMARK   74  A    between atoms: _190  and  _192
REMARK   75  A    between atoms: _192  and  _193
REMARK   76  A    between atoms: _192  and  _195
REMARK   77  A    between atoms: _198  and  _200
REMARK   78  A    between atoms: _200  and  _201
REMARK   79  A    between atoms: _200  and  _203
REMARK   80  A    between atoms: _203  and  _204
REMARK   81  A    between atoms: _204  and  _205
REMARK   82  A    between atoms: _210  and  _212
REMARK   83  A    between atoms: _212  and  _213
REMARK   84  A    between atoms: _212  and  _215
REMARK   85  A    between atoms: _215  and  _216
REMARK   86  A    between atoms: _216  and  _217
REMARK   87  A    between atoms: _220  and  _222
REMARK   88  A    between atoms: _222  and  _223
REMARK   89  A    between atoms: _222  and  _225
REMARK   90  A    between atoms: _225  and  _226
REMARK   91  A    between atoms: _229  and  _231
REMARK   92  A    between atoms: _231  and  _232
REMARK   93  A    between atoms: _231  and  _234
REMARK   94  A    between atoms: _234  and  _235
REMARK   95  A    between atoms: _238  and  _240
REMARK   96  A    between atoms: _240  and  _241
REMARK   97  A    between atoms: _240  and  _243
REMARK   98  A    between atoms: _246  and  _248
REMARK   99  A    between atoms: _248  and  _249
REMARK  100  A    between atoms: _248  and  _251
REMARK  101  A    between atoms: _251  and  _252
REMARK  102  A    between atoms: _257  and  _259
REMARK  103  A    between atoms: _259  and  _260
REMARK  104  A    between atoms: _259  and  _262
REMARK  105  A    between atoms: _262  and  _263
REMARK  106  A    between atoms: _263  and  _264
REMARK  107  A    between atoms: _267  and  _269
REMARK  108  A    between atoms: _269  and  _270
REMARK  109  A    between atoms: _269  and  _272
REMARK  110  A    between atoms: _272  and  _273
REMARK  111  A    between atoms: _276  and  _278
REMARK  112  A    between atoms: _278  and  _279
REMARK  113  A    between atoms: _278  and  _281
REMARK  114  A    between atoms: _281  and  _282
REMARK  115  A    between atoms: _285  and  _287
REMARK  116  A    between atoms: _287  and  _288
REMARK  117  A    between atoms: _287  and  _290
REMARK  118  A    between atoms: _290  and  _291
REMARK  119  A    between atoms: _296  and  _297
REMARK  120  A    between atoms: _299  and  _301
REMARK  121  A    between atoms: _301  and  _302
REMARK  122  A    between atoms: _301  and  _304
REMARK  123  A    between atoms: _304  and  _305
REMARK  124  A    between atoms: _308  and  _310
REMARK  125  A    between atoms: _310  and  _311
REMARK  126  A    between atoms: _310  and  _313
REMARK  127  A    between atoms: _313  and  _314
REMARK  128  A    between atoms: _314  and  _315
REMARK  129  A    between atoms: _317  and  _319
REMARK  130  A    between atoms: _319  and  _320
REMARK  131  A    between atoms: _319  and  _322
REMARK  132  A    between atoms: _322  and  _323
REMARK  133  A    between atoms: _326  and  _328
REMARK  134  A    between atoms: _328  and  _329
REMARK  135  A    between atoms: _332  and  _334
REMARK  136  A    between atoms: _334  and  _335
REMARK  137  A    between atoms: _334  and  _337
REMARK  138  A    between atoms: _337  and  _338
REMARK  139  A    between atoms: _340  and  _342
REMARK  140  A    between atoms: _342  and  _343
REMARK  141  A    between atoms: _342  and  _345
REMARK  142  A    between atoms: _345  and  _346
REMARK  143  A    between atoms: _349  and  _351
REMARK  144  A    between atoms: _351  and  _352
REMARK  145  A    between atoms: _351  and  _354
REMARK  146  A    between atoms: _354  and  _355
REMARK  147  A    between atoms: _355  and  _356
REMARK  148  A    between atoms: _358  and  _360
REMARK  149  A    between atoms: _360  and  _361
REMARK  150  A    between atoms: _360  and  _363
REMARK  151  A    between atoms: _366  and  _368
REMARK  152  A    between atoms: _368  and  _369
REMARK  153  A    between atoms: _368  and  _371
REMARK  154  A    between atoms: _371  and  _372
REMARK  155  A    between atoms: _375  and  _377
REMARK  156  A    between atoms: _377  and  _378
REMARK  157  A    between atoms: _377  and  _380
REMARK  158  A    between atoms: _380  and  _381
REMARK  159  A    between atoms: _384  and  _386
REMARK  160  A    between atoms: _386  and  _387
REMARK  161  A    between atoms: _386  and  _389
REMARK  162  A    between atoms: _389  and  _390
REMARK  163  A    between atoms: _392  and  _394
REMARK  164  A    between atoms: _394  and  _395
REMARK  165  A    between atoms: _394  and  _397
REMARK  166  A    between atoms: _397  and  _398
REMARK  167  A    between atoms: _398  and  _399
REMARK  168  A    between atoms: _402  and  _404
REMARK  169  A    between atoms: _404  and  _405
REMARK  170  A    between atoms: _404  and  _407
REMARK  171  A    between atoms: _407  and  _408
REMARK  172  A    between atoms: _414  and  _416
REMARK  173  A    between atoms: _416  and  _417
REMARK  174  A    between atoms: _416  and  _419
REMARK  175  A    between atoms: _419  and  _420
REMARK  176  A    between atoms: _420  and  _421
REMARK  177  A    between atoms: _423  and  _425
REMARK  178  A    between atoms: _425  and  _426
REMARK  179  A    between atoms: _425  and  _428
REMARK  180  A    between atoms: _428  and  _429
REMARK  181  A    between atoms: _432  and  _434
REMARK  182  A    between atoms: _434  and  _435
REMARK  183  A    between atoms: _434  and  _437
REMARK  184  A    between atoms: _437  and  _438
REMARK  185  A    between atoms: _441  and  _443
REMARK  186  A    between atoms: _443  and  _444
REMARK  187  A    between atoms: _443  and  _446
REMARK  188  A    between atoms: _446  and  _447
REMARK  189  A    between atoms: _450  and  _452
REMARK  190  A    between atoms: _452  and  _453
REMARK  191  A    between atoms: _452  and  _455
REMARK  192  A    between atoms: _455  and  _456
REMARK  193  A    between atoms: _462  and  _464
REMARK  194  A    between atoms: _464  and  _465
REMARK  195  A    between atoms: _464  and  _467
REMARK  196  A    between atoms: _467  and  _468
REMARK  197  A    between atoms: _474  and  _476
REMARK  198  A    between atoms: _476  and  _477
REMARK  199  A    between atoms: _476  and  _479
REMARK  200  A    between atoms: _479  and  _480
REMARK  201  A    between atoms: _480  and  _481
REMARK  202  A    between atoms: _483  and  _485
REMARK  203  A    between atoms: _485  and  _486
REMARK  204  A    between atoms: _485  and  _488
REMARK  205  A    between atoms: _488  and  _489
REMARK  206  A    between atoms: _489  and  _490
REMARK  207  A    between atoms: _490  and  _491
REMARK  208  A    between atoms: _491  and  _492
REMARK  209  A    between atoms: _496  and  _498
REMARK  210  A    between atoms: _498  and  _499
REMARK  211  A    between atoms: _498  and  _501
REMARK  212  A    between atoms: _501  and  _502
REMARK  213  A    between atoms: _508  and  _510
REMARK  214  A    between atoms: _510  and  _511
REMARK  215  A    between atoms: _510  and  _513
REMARK  216  A    between atoms: _513  and  _514
REMARK  217  A    between atoms: _517  and  _519
REMARK  218  A    between atoms: _519  and  _520
REMARK  219  A    between atoms: _519  and  _522
REMARK  220  A    between atoms: _522  and  _523
REMARK  221  A    between atoms: _526  and  _528
REMARK  222  A    between atoms: _528  and  _529
REMARK  223  A    between atoms: _528  and  _531
REMARK  224  A    between atoms: _534  and  _536
REMARK  225  A    between atoms: _536  and  _537
REMARK  226  A    between atoms: _536  and  _539
REMARK  227  A    between atoms: _539  and  _540
REMARK  228  A    between atoms: _545  and  _547
REMARK  229  A    between atoms: _547  and  _548
REMARK  230  A    between atoms: _547  and  _550
REMARK  231  A    between atoms: _553  and  _555
REMARK  232  A    between atoms: _555  and  _556
REMARK  233  A    between atoms: _555  and  _558
REMARK  234  A    between atoms: _558  and  _559
REMARK  235  A    between atoms: _562  and  _564
REMARK  236  A    between atoms: _564  and  _565
REMARK  237  A    between atoms: _564  and  _567
REMARK  238  A    between atoms: _567  and  _568
REMARK  239  A    between atoms: _571  and  _573
REMARK  240  A    between atoms: _573  and  _574
REMARK  241  A    between atoms: _573  and  _576
REMARK  242  A    between atoms: _576  and  _577
REMARK  243  A    between atoms: _580  and  _582
REMARK  244  A    between atoms: _582  and  _583
REMARK  245  A    between atoms: _582  and  _585
REMARK  246  A    between atoms: _585  and  _586
REMARK  247  A    between atoms: _586  and  _587
REMARK  248  A    between atoms: _589  and  _591
REMARK  249  A    between atoms: _591  and  _592
REMARK  250  A    between atoms: _591  and  _594
REMARK  251  A    between atoms: _594  and  _595
REMARK  252  A    between atoms: _597  and  _599
REMARK  253  A    between atoms: _599  and  _600
REMARK  254  A    between atoms: _599  and  _602
REMARK  255  A    between atoms: _602  and  _603
REMARK  256  A    between atoms: _606  and  _608
REMARK  257  A    between atoms: _608  and  _609
REMARK  258  A    between atoms: _608  and  _611
REMARK  259  A    between atoms: _611  and  _612
REMARK  260  A    between atoms: _617  and  _619
REMARK  261  A    between atoms: _619  and  _620
REMARK  262  A    between atoms: _619  and  _622
REMARK  263  A    between atoms: _622  and  _623
REMARK  264  A    between atoms: _626  and  _628
REMARK  265  A    between atoms: _628  and  _629
REMARK  266  A    between atoms: _628  and  _631
REMARK  267  A    between atoms: _631  and  _632
REMARK  268  A    between atoms: _632  and  _633
REMARK  269  A    between atoms: _638  and  _640
REMARK  270  A    between atoms: _640  and  _641
REMARK  271  A    between atoms: _640  and  _643
REMARK  272  A    between atoms: _643  and  _644
REMARK  273  A    between atoms: _647  and  _649
REMARK  274  A    between atoms: _649  and  _650
REMARK  275  A    between atoms: _649  and  _652
REMARK  276  A    between atoms: _652  and  _653
REMARK  277  A    between atoms: _658  and  _659
REMARK                            x       y       z     vdW  Elec       q    Type
REMARK                         _______ _______ _______ _____ _____    ______ ____
ROOT
ATOM      1  CB  PHE A   1      15.185  27.785   5.566  0.00  0.00    +0.051 C 
ENDROOT
BRANCH   1   2
ATOM      2  CG  PHE A   1      15.056  26.381   5.050  0.00  0.00    -0.020 A 
ATOM      3  CD2 PHE A   1      14.678  25.347   5.900  0.00  0.00    -0.004 A 
ATOM      4  CE2 PHE A   1      14.562  24.044   5.428  0.00  0.00    -0.000 A 
ATOM      5  CZ  PHE A   1      14.826  23.764   4.092  0.00  0.00    -0.000 A 
ATOM      6  CE1 PHE A   1      15.205  24.789   3.233  0.00  0.00    -0.000 A 
ATOM      7  CD1 PHE A   1      15.317  26.090   3.715  0.00  0.00    -0.004 A 
ENDBRANCH   1   2
BRANCH   1   8
ATOM      8  CA  PHE A   1      13.880  28.364   6.119  0.00  0.00    +0.137 C 
BRANCH   8   9
ATOM      9  N   PHE A   1      12.897  28.493   5.056  0.00  0.00    -0.239 NA
ATOM     10  H   PHE A   1      12.996  29.260   4.361  0.00  0.00    +0.142 HD
ENDBRANCH   8   9
BRANCH   8  11
ATOM     11  C   PHE A   1      14.156  29.711   6.766  0.00  0.00    +0.224 C 
ATOM     12  O   PHE A   1      14.647  30.632   6.116  0.00  0.00    -0.287 OA
ENDBRANCH   8  11
ENDBRANCH   1   8
TORSDOF 4
REMARK  Name = ../refined-set-2016/2i4z/2i4z_pocket.pdb
REMARK  277 active torsions:
REMARK  status: ('A' for Active; 'I' for Inactive)
REMARK    1  A    between atoms: _1  and  _3
REMARK    2  A    between atoms: _3  and  _4
REMARK    3  A    between atoms: _3  and  _6
REMARK    4  A    between atoms: _6  and  _7
REMARK    5  A    between atoms: _12  and  _13
REMARK    6  A    between atoms: _15  and  _17
REMARK    7  A    between atoms: _17  and  _18
REMARK    8  A    between atoms: _17  and  _20
REMARK    9  A    between atoms: _20  and  _21
REMARK   10  A    between atoms: _23  and  _25
REMARK   11  A    between atoms: _25  and  _26
REMARK   12  A    between atoms: _25  and  _28
REMARK   13  A    between atoms: _28  and  _29
REMARK   14  A    between atoms: _36  and  _37
REMARK   15  A    between atoms: _42  and  _44
REMARK   16  A    between atoms: _44  and  _45
REMARK   17  A    between atoms: _44  and  _47
REMARK   18  A    between atoms: _47  and  _48
REMARK   19  A    between atoms: _51  and  _53
REMARK   20  A    between atoms: _53  and  _54
REMARK   21  A    between atoms: _53  and  _56
REMARK   22  A    between atoms: _56  and  _57
REMARK   23  A    between atoms: _63  and  _65
REMARK   24  A    between atoms: _65  and  _66
REMARK   25  A    between atoms: _65  and  _68
REMARK   26  A    between atoms: _68  and  _69
REMARK   27  A    between atoms: _72  and  _74
REMARK   28  A    between atoms: _74  and  _75
REMARK   29  A    between atoms: _74  and  _77
REMARK   30  A    between atoms: _77  and  _78
REMARK   31  A    between atoms: _81  and  _83
REMARK   32  A    between atoms: _83  and  _84
REMARK   33  A    between atoms: _83  and  _86
REMARK   34  A    between atoms: _86  and  _87
REMARK   35  A    between atoms: _93  and  _95
REMARK   36  A    between atoms: _95  and  _96
REMARK   37  A    between atoms: _95  and  _98
REMARK   38  A    between atoms: _98  and  _99
REMARK   39  A    between atoms: _99  and  _100
REMARK   40  A    between atoms: _105  and  _107
REMARK   41  A    between atoms: _107  and  _108
REMARK   42  A    between atoms: _110  and  _112
REMARK   43  A    between atoms: _112  and  _113
REMARK   44  A    between atoms: _112  and  _115
REMARK   45  A    between atoms: _117  and  _119
REMARK   46  A    between atoms: _119  and  _120
REMARK   47  A    between atoms: _119  and  _122
REMARK   48  A    between atoms: _122  and  _123
REMARK   49  A    between atoms: _123  and  _124
REMARK   50  A    between atoms: _129  and  _131
REMARK   51  A    between atoms: _131  and  _132
REMARK   52  A    between atoms: _131  and  _134
REMARK   53  A    between atoms: _134  and  _135
REMARK   54  A    between atoms: _141  and  _143
REMARK   55  A    between atoms: _143  and  _144
REMARK   56  A    between atoms: _143  and  _146
REMARK   57  A    between atoms: _146  and  _147
REMARK   58  A    between atoms: _147  and  _148
REMARK   59  A    between atoms: _148  and  _149
REMARK   60  A    between atoms: _158  and  _160
REMARK   61  A    between atoms: _160  and  _161
REMARK   62  A    between atoms: _160  and  _163
REMARK   63  A    between atoms: _163  and  _164
REMARK   64  A    between atoms: _166  and  _168
REMARK   65  A    between atoms: _168  and  _169
REMARK   66  A    between atoms: _168  and  _171
REMARK   67  A    between atoms: _174  and  _176
REMARK   68  A    between atoms: _176  and  _177
REMARK   69  A    between atoms: _176  and  _179
REMARK   70  A    between atoms: _179  and  _180
REMARK   71  A    between atoms: _180  and  _181
REMARK   72  A    between atoms: _184  and  _186
REMARK   73  A    between atoms: _186  and  _187
REMARK   74  A    between atoms: _190  and  _192
REMARK   75  A    between atoms: _192  and  _193
REMARK   76  A    between atoms: _192  and  _195
REMARK   77  A    between atoms: _198  and  _200
REMARK   78  A    between atoms: _200  and  _201
REMARK   79  A    between atoms: _200  and  _203
REMARK   80  A    between atoms: _203  and  _204
REMARK   81  A    between atoms: _204  and  _205
REMARK   82  A    between atoms: _210  and  _212
REMARK   83  A    between atoms: _212  and  _213
REMARK   84  A    between atoms: _212  and  _215
REMARK   85  A    between atoms: _215  and  _216
REMARK   86  A    between atoms: _216  and  _217
REMARK   87  A    between atoms: _220  and  _222
REMARK   88  A    between atoms: _222  and  _223
REMARK   89  A    between atoms: _222  and  _225
REMARK   90  A    between atoms: _225  and  _226
REMARK   91  A    between atoms: _229  and  _231
REMARK   92  A    between atoms: _231  and  _232
REMARK   93  A    between atoms: _231  and  _234
REMARK   94  A    between atoms: _234  and  _235
REMARK   95  A    between atoms: _238  and  _240
REMARK   96  A    between atoms: _240  and  _241
REMARK   97  A    between atoms: _240  and  _243
REMARK   98  A    between atoms: _246  and  _248
REMARK   99  A    between atoms: _248  and  _249
REMARK  100  A    between atoms: _248  and  _251
REMARK  101  A    between atoms: _251  and  _252
REMARK  102  A    between atoms: _257  and  _259
REMARK  103  A    between atoms: _259  and  _260
REMARK  104  A    between atoms: _259  and  _262
REMARK  105  A    between atoms: _262  and  _263
REMARK  106  A    between atoms: _263  and  _264
REMARK  107  A    between atoms: _267  and  _269
REMARK  108  A    between atoms: _269  and  _270
REMARK  109  A    between atoms: _269  and  _272
REMARK  110  A    between atoms: _272  and  _273
REMARK  111  A    between atoms: _276  and  _278
REMARK  112  A    between atoms: _278  and  _279
REMARK  113  A    between atoms: _278  and  _281
REMARK  114  A    between atoms: _281  and  _282
REMARK  115  A    between atoms: _285  and  _287
REMARK  116  A    between atoms: _287  and  _288
REMARK  117  A    between atoms: _287  and  _290
REMARK  118  A    between atoms: _290  and  _291
REMARK  119  A    between atoms: _296  and  _297
REMARK  120  A    between atoms: _299  and  _301
REMARK  121  A    between atoms: _301  and  _302
REMARK  122  A    between atoms: _301  and  _304
REMARK  123  A    between atoms: _304  and  _305
REMARK  124  A    between atoms: _308  and  _310
REMARK  125  A    between atoms: _310  and  _311
REMARK  126  A    between atoms: _310  and  _313
REMARK  127  A    between atoms: _313  and  _314
REMARK  128  A    between atoms: _314  and  _315
REMARK  129  A    between atoms: _317  and  _319
REMARK  130  A    between atoms: _319  and  _320
REMARK  131  A    between atoms: _319  and  _322
REMARK  132  A    between atoms: _322  and  _323
REMARK  133  A    between atoms: _326  and  _328
REMARK  134  A    between atoms: _328  and  _329
REMARK  135  A    between atoms: _332  and  _334
REMARK  136  A    between atoms: _334  and  _335
REMARK  137  A    between atoms: _334  and  _337
REMARK  138  A    between atoms: _337  and  _338
REMARK  139  A    between atoms: _340  and  _342
REMARK  140  A    between atoms: _342  and  _343
REMARK  141  A    between atoms: _342  and  _345
REMARK  142  A    between atoms: _345  and  _346
REMARK  143  A    between atoms: _349  and  _351
REMARK  144  A    between atoms: _351  and  _352
REMARK  145  A    between atoms: _351  and  _354
REMARK  146  A    between atoms: _354  and  _355
REMARK  147  A    between atoms: _355  and  _356
REMARK  148  A    between atoms: _358  and  _360
REMARK  149  A    between atoms: _360  and  _361
REMARK  150  A    between atoms: _360  and  _363
REMARK  151  A    between atoms: _366  and  _368
REMARK  152  A    between atoms: _368  and  _369
REMARK  153  A    between atoms: _368  and  _371
REMARK  154  A    between atoms: _371  and  _372
REMARK  155  A    between atoms: _375  and  _377
REMARK  156  A    between atoms: _377  and  _378
REMARK  157  A    between atoms: _377  and  _380
REMARK  158  A    between atoms: _380  and  _381
REMARK  159  A    between atoms: _384  and  _386
REMARK  160  A    between atoms: _386  and  _387
REMARK  161  A    between atoms: _386  and  _389
REMARK  162  A    between atoms: _389  and  _390
REMARK  163  A    between atoms: _392  and  _394
REMARK  164  A    between atoms: _394  and  _395
REMARK  165  A    between atoms: _394  and  _397
REMARK  166  A    between atoms: _397  and  _398
REMARK  167  A    between atoms: _398  and  _399
REMARK  168  A    between atoms: _402  and  _404
REMARK  169  A    between atoms: _404  and  _405
REMARK  170  A    between atoms: _404  and  _407
REMARK  171  A    between atoms: _407  and  _408
REMARK  172  A    between atoms: _414  and  _416
REMARK  173  A    between atoms: _416  and  _417
REMARK  174  A    between atoms: _416  and  _419
REMARK  175  A    between atoms: _419  and  _420
REMARK  176  A    between atoms: _420  and  _421
REMARK  177  A    between atoms: _423  and  _425
REMARK  178  A    between atoms: _425  and  _426
REMARK  179  A    between atoms: _425  and  _428
REMARK  180  A    between atoms: _428  and  _429
REMARK  181  A    between atoms: _432  and  _434
REMARK  182  A    between atoms: _434  and  _435
REMARK  183  A    between atoms: _434  and  _437
REMARK  184  A    between atoms: _437  and  _438
REMARK  185  A    between atoms: _441  and  _443
REMARK  186  A    between atoms: _443  and  _444
REMARK  187  A    between atoms: _443  and  _446
REMARK  188  A    between atoms: _446  and  _447
REMARK  189  A    between atoms: _450  and  _452
REMARK  190  A    between atoms: _452  and  _453
REMARK  191  A    between atoms: _452  and  _455
REMARK  192  A    between atoms: _455  and  _456
REMARK  193  A    between atoms: _462  and  _464
REMARK  194  A    between atoms: _464  and  _465
REMARK  195  A    between atoms: _464  and  _467
REMARK  196  A    between atoms: _467  and  _468
REMARK  197  A    between atoms: _474  and  _476
REMARK  198  A    between atoms: _476  and  _477
REMARK  199  A    between atoms: _476  and  _479
REMARK  200  A    between atoms: _479  and  _480
REMARK  201  A    between atoms: _480  and  _481
REMARK  202  A    between atoms: _483  and  _485
REMARK  203  A    between atoms: _485  and  _486
REMARK  204  A    between atoms: _485  and  _488
REMARK  205  A    between atoms: _488  and  _489
REMARK  206  A    between atoms: _489  and  _490
REMARK  207  A    between atoms: _490  and  _491
REMARK  208  A    between atoms: _491  and  _492
REMARK  209  A    between atoms: _496  and  _498
REMARK  210  A    between atoms: _498  and  _499
REMARK  211  A    between atoms: _498  and  _501
REMARK  212  A    between atoms: _501  and  _502
REMARK  213  A    between atoms: _508  and  _510
REMARK  214  A    between atoms: _510  and  _511
REMARK  215  A    between atoms: _510  and  _513
REMARK  216  A    between atoms: _513  and  _514
REMARK  217  A    between atoms: _517  and  _519
REMARK  218  A    between atoms: _519  and  _520
REMARK  219  A    between atoms: _519  and  _522
REMARK  220  A    between atoms: _522  and  _523
REMARK  221  A    between atoms: _526  and  _528
REMARK  222  A    between atoms: _528  and  _529
REMARK  223  A    between atoms: _528  and  _531
REMARK  224  A    between atoms: _534  and  _536
REMARK  225  A    between atoms: _536  and  _537
REMARK  226  A    between atoms: _536  and  _539
REMARK  227  A    between atoms: _539  and  _540
REMARK  228  A    between atoms: _545  and  _547
REMARK  229  A    between atoms: _547  and  _548
REMARK  230  A    between atoms: _547  and  _550
REMARK  231  A    between atoms: _553  and  _555
REMARK  232  A    between atoms: _555  and  _556
REMARK  233  A    between atoms: _555  and  _558
REMARK  234  A    between atoms: _558  and  _559
REMARK  235  A    between atoms: _562  and  _564
REMARK  236  A    between atoms: _564  and  _565
REMARK  237  A    between atoms: _564  and  _567
REMARK  238  A    between atoms: _567  and  _568
REMARK  239  A    between atoms: _571  and  _573
REMARK  240  A    between atoms: _573  and  _574
REMARK  241  A    between atoms: _573  and  _576
REMARK  242  A    between atoms: _576  and  _577
REMARK  243  A    between atoms: _580  and  _582
REMARK  244  A    between atoms: _582  and  _583
REMARK  245  A    between atoms: _582  and  _585
REMARK  246  A    between atoms: _585  and  _586
REMARK  247  A    between atoms: _586  and  _587
REMARK  248  A    between atoms: _589  and  _591
REMARK  249  A    between atoms: _591  and  _592
REMARK  250  A    between atoms: _591  and  _594
REMARK  251  A    between atoms: _594  and  _595
REMARK  252  A    between atoms: _597  and  _599
REMARK  253  A    between atoms: _599  and  _600
REMARK  254  A    between atoms: _599  and  _602
REMARK  255  A    between atoms: _602  and  _603
REMARK  256  A    between atoms: _606  and  _608
REMARK  257  A    between atoms: _608  and  _609
REMARK  258  A    between atoms: _608  and  _611
REMARK  259  A    between atoms: _611  and  _612
REMARK  260  A    between atoms: _617  and  _619
REMARK  261  A    between atoms: _619  and  _620
REMARK  262  A    between atoms: _619  and  _622
REMARK  263  A    between atoms: _622  and  _623
REMARK  264  A    between atoms: _626  and  _628
REMARK  265  A    between atoms: _628  and  _629
REMARK  266  A    between atoms: _628  and  _631
REMARK  267  A    between atoms: _631  and  _632
REMARK  268  A    between atoms: _632  and  _633
REMARK  269  A    between atoms: _638  and  _640
REMARK  270  A    between atoms: _640  and  _641
REMARK  271  A    between atoms: _640  and  _643
REMARK  272  A    between atoms: _643  and  _644
REMARK  273  A    between atoms: _647  and  _649
REMARK  274  A    between atoms: _649  and  _650
REMARK  275  A    between atoms: _649  and  _652
REMARK  276  A    between atoms: _652  and  _653
REMARK  277  A    between atoms: _658  and  _659
REMARK                            x       y       z     vdW  Elec       q    Type
REMARK                         _______ _______ _______ _____ _____    ______ ____
ROOT
ATOM      1  CA  ILE A   1      25.887  26.342  12.612  0.00  0.00    +0.133 C 
ENDROOT
BRANCH   1   2
ATOM      2  N   ILE A   1      26.569  25.868  11.421  0.00  0.00    -0.239 NA
ATOM      3  H   ILE A   1      27.406  26.382  11.078  0.00  0.00    +0.142 HD
ENDBRANCH   1   2
BRANCH   1   4
ATOM      4  CB  ILE A   1      26.626  27.568  13.199  0.00  0.00    +0.023 C 
ATOM      5  CG2 ILE A   1      25.842  28.163  14.363  0.00  0.00    +0.002 C 
BRANCH   4   6
ATOM      6  CG1 ILE A   1      28.022  27.130  13.661  0.00  0.00    +0.002 C 
ATOM      7  CD1 ILE A   1      28.891  28.256  14.184  0.00  0.00    +0.000 C 
ENDBRANCH   4   6
ENDBRANCH   1   4
BRANCH   1   8
ATOM      8  C   ILE A   1      24.433  26.678  12.306  0.00  0.00    +0.224 C 
ATOM      9  O   ILE A   1      23.558  26.477  13.142  0.00  0.00    -0.287 OA
ENDBRANCH   1   8
TORSDOF 4
REMARK  Name = ../refined-set-2016/2i4z/2i4z_pocket.pdb
REMARK  277 active torsions:
REMARK  status: ('A' for Active; 'I' for Inactive)
REMARK    1  A    between atoms: _1  and  _3
REMARK    2  A    between atoms: _3  and  _4
REMARK    3  A    between atoms: _3  and  _6
REMARK    4  A    between atoms: _6  and  _7
REMARK    5  A    between atoms: _12  and  _13
REMARK    6  A    between atoms: _15  and  _17
REMARK    7  A    between atoms: _17  and  _18
REMARK    8  A    between atoms: _17  and  _20
REMARK    9  A    between atoms: _20  and  _21
REMARK   10  A    between atoms: _23  and  _25
REMARK   11  A    between atoms: _25  and  _26
REMARK   12  A    between atoms: _25  and  _28
REMARK   13  A    between atoms: _28  and  _29
REMARK   14  A    between atoms: _36  and  _37
REMARK   15  A    between atoms: _42  and  _44
REMARK   16  A    between atoms: _44  and  _45
REMARK   17  A    between atoms: _44  and  _47
REMARK   18  A    between atoms: _47  and  _48
REMARK   19  A    between atoms: _51  and  _53
REMARK   20  A    between atoms: _53  and  _54
REMARK   21  A    between atoms: _53  and  _56
REMARK   22  A    between atoms: _56  and  _57
REMARK   23  A    between atoms: _63  and  _65
REMARK   24  A    between atoms: _65  and  _66
REMARK   25  A    between atoms: _65  and  _68
REMARK   26  A    between atoms: _68  and  _69
REMARK   27  A    between atoms: _72  and  _74
REMARK   28  A    between atoms: _74  and  _75
REMARK   29  A    between atoms: _74  and  _77
REMARK   30  A    between atoms: _77  and  _78
REMARK   31  A    between atoms: _81  and  _83
REMARK   32  A    between atoms: _83  and  _84
REMARK   33  A    between atoms: _83  and  _86
REMARK   34  A    between atoms: _86  and  _87
REMARK   35  A    between atoms: _93  and  _95
REMARK   36  A    between atoms: _95  and  _96
REMARK   37  A    between atoms: _95  and  _98
REMARK   38  A    between atoms: _98  and  _99
REMARK   39  A    between atoms: _99  and  _100
REMARK   40  A    between atoms: _105  and  _107
REMARK   41  A    between atoms: _107  and  _108
REMARK   42  A    between atoms: _110  and  _112
REMARK   43  A    between atoms: _112  and  _113
REMARK   44  A    between atoms: _112  and  _115
REMARK   45  A    between atoms: _117  and  _119
REMARK   46  A    between atoms: _119  and  _120
REMARK   47  A    between atoms: _119  and  _122
REMARK   48  A    between atoms: _122  and  _123
REMARK   49  A    between atoms: _123  and  _124
REMARK   50  A    between atoms: _129  and  _131
REMARK   51  A    between atoms: _131  and  _132
REMARK   52  A    between atoms: _131  and  _134
REMARK   53  A    between atoms: _134  and  _135
REMARK   54  A    between atoms: _141  and  _143
REMARK   55  A    between atoms: _143  and  _144
REMARK   56  A    between atoms: _143  and  _146
REMARK   57  A    between atoms: _146  and  _147
REMARK   58  A    between atoms: _147  and  _148
REMARK   59  A    between atoms: _148  and  _149
REMARK   60  A    between atoms: _158  and  _160
REMARK   61  A    between atoms: _160  and  _161
REMARK   62  A    between atoms: _160  and  _163
REMARK   63  A    between atoms: _163  and  _164
REMARK   64  A    between atoms: _166  and  _168
REMARK   65  A    between atoms: _168  and  _169
REMARK   66  A    between atoms: _168  and  _171
REMARK   67  A    between atoms: _174  and  _176
REMARK   68  A    between atoms: _176  and  _177
REMARK   69  A    between atoms: _176  and  _179
REMARK   70  A    between atoms: _179  and  _180
REMARK   71  A    between atoms: _180  and  _181
REMARK   72  A    between atoms: _184  and  _186
REMARK   73  A    between atoms: _186  and  _187
REMARK   74  A    between atoms: _190  and  _192
REMARK   75  A    between atoms: _192  and  _193
REMARK   76  A    between atoms: _192  and  _195
REMARK   77  A    between atoms: _198  and  _200
REMARK   78  A    between atoms: _200  and  _201
REMARK   79  A    between atoms: _200  and  _203
REMARK   80  A    between atoms: _203  and  _204
REMARK   81  A    between atoms: _204  and  _205
REMARK   82  A    between atoms: _210  and  _212
REMARK   83  A    between atoms: _212  and  _213
REMARK   84  A    between atoms: _212  and  _215
REMARK   85  A    between atoms: _215  and  _216
REMARK   86  A    between atoms: _216  and  _217
REMARK   87  A    between atoms: _220  and  _222
REMARK   88  A    between atoms: _222  and  _223
REMARK   89  A    between atoms: _222  and  _225
REMARK   90  A    between atoms: _225  and  _226
REMARK   91  A    between atoms: _229  and  _231
REMARK   92  A    between atoms: _231  and  _232
REMARK   93  A    between atoms: _231  and  _234
REMARK   94  A    between atoms: _234  and  _235
REMARK   95  A    between atoms: _238  and  _240
REMARK   96  A    between atoms: _240  and  _241
REMARK   97  A    between atoms: _240  and  _243
REMARK   98  A    between atoms: _246  and  _248
REMARK   99  A    between atoms: _248  and  _249
REMARK  100  A    between atoms: _248  and  _251
REMARK  101  A    between atoms: _251  and  _252
REMARK  102  A    between atoms: _257  and  _259
REMARK  103  A    between atoms: _259  and  _260
REMARK  104  A    between atoms: _259  and  _262
REMARK  105  A    between atoms: _262  and  _263
REMARK  106  A    between atoms: _263  and  _264
REMARK  107  A    between atoms: _267  and  _269
REMARK  108  A    between atoms: _269  and  _270
REMARK  109  A    between atoms: _269  and  _272
REMARK  110  A    between atoms: _272  and  _273
REMARK  111  A    between atoms: _276  and  _278
REMARK  112  A    between atoms: _278  and  _279
REMARK  113  A    between atoms: _278  and  _281
REMARK  114  A    between atoms: _281  and  _282
REMARK  115  A    between atoms: _285  and  _287
REMARK  116  A    between atoms: _287  and  _288
REMARK  117  A    between atoms: _287  and  _290
REMARK  118  A    between atoms: _290  and  _291
REMARK  119  A    between atoms: _296  and  _297
REMARK  120  A    between atoms: _299  and  _301
REMARK  121  A    between atoms: _301  and  _302
REMARK  122  A    between atoms: _301  and  _304
REMARK  123  A    between atoms: _304  and  _305
REMARK  124  A    between atoms: _308  and  _310
REMARK  125  A    between atoms: _310  and  _311
REMARK  126  A    between atoms: _310  and  _313
REMARK  127  A    between atoms: _313  and  _314
REMARK  128  A    between atoms: _314  and  _315
REMARK  129  A    between atoms: _317  and  _319
REMARK  130  A    between atoms: _319  and  _320
REMARK  131  A    between atoms: _319  and  _322
REMARK  132  A    between atoms: _322  and  _323
REMARK  133  A    between atoms: _326  and  _328
REMARK  134  A    between atoms: _328  and  _329
REMARK  135  A    between atoms: _332  and  _334
REMARK  136  A    between atoms: _334  and  _335
REMARK  137  A    between atoms: _334  and  _337
REMARK  138  A    between atoms: _337  and  _338
REMARK  139  A    between atoms: _340  and  _342
REMARK  140  A    between atoms: _342  and  _343
REMARK  141  A    between atoms: _342  and  _345
REMARK  142  A    between atoms: _345  and  _346
REMARK  143  A    between atoms: _349  and  _351
REMARK  144  A    between atoms: _351  and  _352
REMARK  145  A    between atoms: _351  and  _354
REMARK  146  A    between atoms: _354  and  _355
REMARK  147  A    between atoms: _355  and  _356
REMARK  148  A    between atoms: _358  and  _360
REMARK  149  A    between atoms: _360  and  _361
REMARK  150  A    between atoms: _360  and  _363
REMARK  151  A    between atoms: _366  and  _368
REMARK  152  A    between atoms: _368  and  _369
REMARK  153  A    between atoms: _368  and  _371
REMARK  154  A    between atoms: _371  and  _372
REMARK  155  A    between atoms: _375  and  _377
REMARK  156  A    between atoms: _377  and  _378
REMARK  157  A    between atoms: _377  and  _380
REMARK  158  A    between atoms: _380  and  _381
REMARK  159  A    between atoms: _384  and  _386
REMARK  160  A    between atoms: _386  and  _387
REMARK  161  A    between atoms: _386  and  _389
REMARK  162  A    between atoms: _389  and  _390
REMARK  163  A    between atoms: _392  and  _394
REMARK  164  A    between atoms: _394  and  _395
REMARK  165  A    between atoms: _394  and  _397
REMARK  166  A    between atoms: _397  and  _398
REMARK  167  A    between atoms: _398  and  _399
REMARK  168  A    between atoms: _402  and  _404
REMARK  169  A    between atoms: _404  and  _405
REMARK  170  A    between atoms: _404  and  _407
REMARK  171  A    between atoms: _407  and  _408
REMARK  172  A    between atoms: _414  and  _416
REMARK  173  A    between atoms: _416  and  _417
REMARK  174  A    between atoms: _416  and  _419
REMARK  175  A    between atoms: _419  and  _420
REMARK  176  A    between atoms: _420  and  _421
REMARK  177  A    between atoms: _423  and  _425
REMARK  178  A    between atoms: _425  and  _426
REMARK  179  A    between atoms: _425  and  _428
REMARK  180  A    between atoms: _428  and  _429
REMARK  181  A    between atoms: _432  and  _434
REMARK  182  A    between atoms: _434  and  _435
REMARK  183  A    between atoms: _434  and  _437
REMARK  184  A    between atoms: _437  and  _438
REMARK  185  A    between atoms: _441  and  _443
REMARK  186  A    between atoms: _443  and  _444
REMARK  187  A    between atoms: _443  and  _446
REMARK  188  A    between atoms: _446  and  _447
REMARK  189  A    between atoms: _450  and  _452
REMARK  190  A    between atoms: _452  and  _453
REMARK  191  A    between atoms: _452  and  _455
REMARK  192  A    between atoms: _455  and  _456
REMARK  193  A    between atoms: _462  and  _464
REMARK  194  A    between atoms: _464  and  _465
REMARK  195  A    between atoms: _464  and  _467
REMARK  196  A    between atoms: _467  and  _468
REMARK  197  A    between atoms: _474  and  _476
REMARK  198  A    between atoms: _476  and  _477
REMARK  199  A    between atoms: _476  and  _479
REMARK  200  A    between atoms: _479  and  _480
REMARK  201  A    between atoms: _480  and  _481
REMARK  202  A    between atoms: _483  and  _485
REMARK  203  A    between atoms: _485  and  _486
REMARK  204  A    between atoms: _485  and  _488
REMARK  205  A    between atoms: _488  and  _489
REMARK  206  A    between atoms: _489  and  _490
REMARK  207  A    between atoms: _490  and  _491
REMARK  208  A    between atoms: _491  and  _492
REMARK  209  A    between atoms: _496  and  _498
REMARK  210  A    between atoms: _498  and  _499
REMARK  211  A    between atoms: _498  and  _501
REMARK  212  A    between atoms: _501  and  _502
REMARK  213  A    between atoms: _508  and  _510
REMARK  214  A    between atoms: _510  and  _511
REMARK  215  A    between atoms: _510  and  _513
REMARK  216  A    between atoms: _513  and  _514
REMARK  217  A    between atoms: _517  and  _519
REMARK  218  A    between atoms: _519  and  _520
REMARK  219  A    between atoms: _519  and  _522
REMARK  220  A    between atoms: _522  and  _523
REMARK  221  A    between atoms: _526  and  _528
REMARK  222  A    between atoms: _528  and  _529
REMARK  223  A    between atoms: _528  and  _531
REMARK  224  A    between atoms: _534  and  _536
REMARK  225  A    between atoms: _536  and  _537
REMARK  226  A    between atoms: _536  and  _539
REMARK  227  A    between atoms: _539  and  _540
REMARK  228  A    between atoms: _545  and  _547
REMARK  229  A    between atoms: _547  and  _548
REMARK  230  A    between atoms: _547  and  _550
REMARK  231  A    between atoms: _553  and  _555
REMARK  232  A    between atoms: _555  and  _556
REMARK  233  A    between atoms: _555  and  _558
REMARK  234  A    between atoms: _558  and  _559
REMARK  235  A    between atoms: _562  and  _564
REMARK  236  A    between atoms: _564  and  _565
REMARK  237  A    between atoms: _564  and  _567
REMARK  238  A    between atoms: _567  and  _568
REMARK  239  A    between atoms: _571  and  _573
REMARK  240  A    between atoms: _573  and  _574
REMARK  241  A    between atoms: _573  and  _576
REMARK  242  A    between atoms: _576  and  _577
REMARK  243  A    between atoms: _580  and  _582
REMARK  244  A    between atoms: _582  and  _583
REMARK  245  A    between atoms: _582  and  _585
REMARK  246  A    between atoms: _585  and  _586
REMARK  247  A    between atoms: _586  and  _587
REMARK  248  A    between atoms: _589  and  _591
REMARK  249  A    between atoms: _591  and  _592
REMARK  250  A    between atoms: _591  and  _594
REMARK  251  A    between atoms: _594  and  _595
REMARK  252  A    between atoms: _597  and  _599
REMARK  253  A    between atoms: _599  and  _600
REMARK  254  A    between atoms: _599  and  _602
REMARK  255  A    between atoms: _602  and  _603
REMARK  256  A    between atoms: _606  and  _608
REMARK  257  A    between atoms: _608  and  _609
REMARK  258  A    between atoms: _608  and  _611
REMARK  259  A    between atoms: _611  and  _612
REMARK  260  A    between atoms: _617  and  _619
REMARK  261  A    between atoms: _619  and  _620
REMARK  262  A    between atoms: _619  and  _622
REMARK  263  A    between atoms: _622  and  _623
REMARK  264  A    between atoms: _626  and  _628
REMARK  265  A    between atoms: _628  and  _629
REMARK  266  A    between atoms: _628  and  _631
REMARK  267  A    between atoms: _631  and  _632
REMARK  268  A    between atoms: _632  and  _633
REMARK  269  A    between atoms: _638  and  _640
REMARK  270  A    between atoms: _640  and  _641
REMARK  271  A    between atoms: _640  and  _643
REMARK  272  A    between atoms: _643  and  _644
REMARK  273  A    between atoms: _647  and  _649
REMARK  274  A    between atoms: _649  and  _650
REMARK  275  A    between atoms: _649  and  _652
REMARK  276  A    between atoms: _652  and  _653
REMARK  277  A    between atoms: _658  and  _659
REMARK                            x       y       z     vdW  Elec       q    Type
REMARK                         _______ _______ _______ _____ _____    ______ ____
ROOT
ATOM      1  CA  ARG A   8      12.892  21.036  15.106  0.00  0.00    +0.149 C 
ENDROOT
BRANCH   1   2
ATOM      2  C   ARG A   8      12.827  20.094  16.304  0.00  0.00    +0.241 C 
ATOM      3  N   SER A   9      13.966  19.906  16.966  0.00  0.00    -0.295 N 
ATOM      4  H   SER A   9      14.829  20.388  16.642  0.00  0.00    +0.150 HD
ATOM      5  O   ARG A   8      11.765  19.556  16.630  0.00  0.00    -0.273 OA
BRANCH   3   6
ATOM      6  CA  SER A   9      14.028  19.039  18.135  0.00  0.00    +0.178 C 
BRANCH   6   7
ATOM      7  C   SER A   9      13.063  19.434  19.245  0.00  0.00    +0.243 C 
ATOM      8  O   SER A   9      12.328  18.583  19.755  0.00  0.00    -0.273 OA
ATOM      9  N   VAL A  10      13.063  20.707  19.638  0.00  0.00    -0.297 N 
ATOM     10  H   VAL A  10      13.694  21.400  19.187  0.00  0.00    +0.150 HD
BRANCH   9  11
ATOM     11  CA  VAL A  10      12.165  21.109  20.709  0.00  0.00    +0.149 C 
BRANCH  11  12
ATOM     12  C   VAL A  10      10.724  21.025  20.227  0.00  0.00    +0.241 C 
ATOM     13  O   VAL A  10       9.803  20.936  21.032  0.00  0.00    -0.273 OA
ATOM     14  N   GLU A  11      10.529  21.045  18.912  0.00  0.00    -0.297 N 
ATOM     15  H   GLU A  11      11.340  21.154  18.270  0.00  0.00    +0.150 HD
BRANCH  14  16
ATOM     16  CA  GLU A  11       9.182  20.914  18.367  0.00  0.00    +0.149 C 
BRANCH  16  17
ATOM     17  C   GLU A  11       8.783  19.449  18.508  0.00  0.00    +0.241 C 
ATOM     18  O   GLU A  11       7.646  19.132  18.845  0.00  0.00    -0.273 OA
ATOM     19  N   ALA A  12       9.740  18.563  18.249  0.00  0.00    -0.297 N 
ATOM     20  H   ALA A  12      10.678  18.906  17.959  0.00  0.00    +0.150 HD
BRANCH  19  21
ATOM     21  CA  ALA A  12       9.516  17.126  18.359  0.00  0.00    +0.149 C 
ATOM     22  CB  ALA A  12      10.730  16.367  17.857  0.00  0.00    +0.031 C 
BRANCH  21  23
ATOM     23  C   ALA A  12       9.242  16.774  19.816  0.00  0.00    +0.241 C 
ATOM     24  N   VAL A  13       9.927  17.455  20.732  0.00  0.00    -0.297 N 
ATOM     25  H   VAL A  13      10.611  18.176  20.427  0.00  0.00    +0.150 HD
ATOM     26  O   ALA A  12       8.426  15.900  20.107  0.00  0.00    -0.273 OA
BRANCH  24  27
ATOM     27  CA  VAL A  13       9.734  17.207  22.158  0.00  0.00    +0.149 C 
BRANCH  27  28
ATOM     28  C   VAL A  13       8.292  17.506  22.561  0.00  0.00    +0.241 C 
ATOM     29  O   VAL A  13       7.721  16.817  23.408  0.00  0.00    -0.273 OA
ATOM     30  N   GLN A  14       7.698  18.524  21.943  0.00  0.00    -0.297 N 
ATOM     31  H   GLN A  14       8.222  19.061  21.223  0.00  0.00    +0.150 HD
BRANCH  30  32
ATOM     32  CA  GLN A  14       6.325  18.899  22.258  0.00  0.00    +0.149 C 
BRANCH  32  33
ATOM     33  C   GLN A  14       5.313  17.902  21.711  0.00  0.00    +0.241 C 
ATOM     34  O   GLN A  14       4.314  17.597  22.372  0.00  0.00    -0.273 OA
ATOM     35  N   GLU A  15       5.562  17.409  20.500  0.00  0.00    -0.297 N 
ATOM     36  H   GLU A  15       6.408  17.730  19.988  0.00  0.00    +0.150 HD
BRANCH  35  37
ATOM     37  CA  GLU A  15       4.683  16.433  19.873  0.00  0.00    +0.149 C 
BRANCH  37  38
ATOM     38  C   GLU A  15       4.713  15.144  20.699  0.00  0.00    +0.241 C 
ATOM     39  O   GLU A  15       3.671  14.595  21.058  0.00  0.00    -0.273 OA
ATOM     40  N   ILE A  16       5.920  14.675  21.002  0.00  0.00    -0.297 N 
ATOM     41  H   ILE A  16       6.759  15.183  20.656  0.00  0.00    +0.150 HD
BRANCH  40  42
ATOM     42  CA  ILE A  16       6.103  13.469  21.805  0.00  0.00    +0.149 C 
BRANCH  42  43
ATOM     43  C   ILE A  16       5.432  13.662  23.163  0.00  0.00    +0.241 C 
ATOM     44  N   THR A  17       5.594  14.837  23.767  0.00  0.00    -0.296 N 
ATOM     45  H   THR A  17       6.160  15.585  23.318  0.00  0.00    +0.150 HD
ATOM     46  O   ILE A  16       4.773  12.753  23.667  0.00  0.00    -0.273 OA
BRANCH  44  47
ATOM     47  CA  THR A  17       4.968  15.066  25.068  0.00  0.00    +0.164 C 
BRANCH  47  48
ATOM     48  CB  THR A  17       5.358  16.435  25.659  0.00  0.00    +0.136 C 
ATOM     49  CG2 THR A  17       4.706  16.633  27.010  0.00  0.00    +0.034 C 
BRANCH  48  50
ATOM     50  OG1 THR A  17       6.779  16.497  25.829  0.00  0.00    -0.382 OA
ATOM     51  HG1 THR A  17       7.221  16.379  24.951  0.00  0.00    +0.210 HD
ENDBRANCH  48  50
ENDBRANCH  47  48
BRANCH  47  52
ATOM     52  C   THR A  17       3.448  14.979  24.916  0.00  0.00    +0.229 C 
ATOM     53  O   THR A  17       2.758  14.373  25.745  0.00  0.00    -0.286 OA
ENDBRANCH  47  52
ENDBRANCH  44  47
ENDBRANCH  42  43
BRANCH  42  54
ATOM     54  CB  ILE A  16       7.610  13.176  22.019  0.00  0.00    +0.027 C 
ATOM     55  CG2 ILE A  16       7.804  12.088  23.096  0.00  0.00    +0.002 C 
BRANCH  54  56
ATOM     56  CG1 ILE A  16       8.247  12.778  20.685  0.00  0.00    +0.002 C 
ATOM     57  CD1 ILE A  16       9.774  12.901  20.658  0.00  0.00    +0.000 C 
ENDBRANCH  54  56
ENDBRANCH  42  54
ENDBRANCH  40  42
ENDBRANCH  37  38
BRANCH  37  58
ATOM     58  CB  GLU A  15       5.152  16.159  18.437  0.00  0.00    +0.041 C 
BRANCH  58  59
ATOM     59  CG  GLU A  15       5.504  17.428  17.672  0.00  0.00    +0.116 C 
BRANCH  59  60
ATOM     60  CD  GLU A  15       5.874  17.170  16.226  0.00  0.00    +0.365 C 
ATOM     61  OE2 GLU A  15       6.615  16.199  15.961  0.00  0.00    -0.246 OA
ATOM     62  OE1 GLU A  15       5.436  17.950  15.352  0.00  0.00    -0.246 OA
ENDBRANCH  59  60
ENDBRANCH  58  59
ENDBRANCH  37  58
ENDBRANCH  35  37
ENDBRANCH  32  33
BRANCH  32  63
ATOM     63  CB  GLN A  14       6.014  20.288  21.715  0.00  0.00    +0.039 C 
BRANCH  63  64
ATOM     64  CG  GLN A  14       4.589  20.731  22.009  0.00  0.00    +0.087 C 
BRANCH  64  65
ATOM     65  CD  GLN A  14       4.246  20.666  23.493  0.00  0.00    +0.219 C 
ATOM     66  OE1 GLN A  14       4.926  21.275  24.324  0.00  0.00    -0.275 OA
ATOM     67  NE2 GLN A  14       3.185  19.929  23.831  0.00  0.00    -0.329 N 
ATOM     68 HE21 GLN A  14       2.902  19.851  24.829  0.00  0.00    +0.145 HD
ATOM     69 HE22 GLN A  14       2.641  19.433  23.096  0.00  0.00    +0.145 HD
ENDBRANCH  64  65
ENDBRANCH  63  64
ENDBRANCH  32  63
ENDBRANCH  30  32
ENDBRANCH  27  28
BRANCH  27  70
ATOM     70  CB  VAL A  13      10.683  18.074  23.027  0.00  0.00    +0.027 C 
ATOM     71  CG2 VAL A  13      10.314  17.938  24.495  0.00  0.00    +0.002 C 
ATOM     72  CG1 VAL A  13      12.117  17.628  22.838  0.00  0.00    +0.002 C 
ENDBRANCH  27  70
ENDBRANCH  24  27
ENDBRANCH  21  23
ENDBRANCH  19  21
ENDBRANCH  16  17
BRANCH  16  73
ATOM     73  CB  GLU A  11       9.133  21.325  16.892  0.00  0.00    +0.041 C 
BRANCH  73  74
ATOM     74  CG  GLU A  11       8.913  22.814  16.661  0.00  0.00    +0.116 C 
BRANCH  74  75
ATOM     75  CD  GLU A  11       8.741  23.153  15.189  0.00  0.00    +0.365 C 
ATOM     76  OE2 GLU A  11       7.693  23.734  14.824  0.00  0.00    -0.246 OA
ATOM     77  OE1 GLU A  11       9.657  22.840  14.397  0.00  0.00    -0.246 OA
ENDBRANCH  74  75
ENDBRANCH  73  74
ENDBRANCH  16  73
ENDBRANCH  14  16
ENDBRANCH  11  12
BRANCH  11  78
ATOM     78  CB  VAL A  10      12.495  22.542  21.285  0.00  0.00    +0.027 C 
ATOM     79  CG2 VAL A  10      11.341  23.511  21.040  0.00  0.00    +0.002 C 
ATOM     80  CG1 VAL A  10      13.805  23.055  20.712  0.00  0.00    +0.002 C 
ENDBRANCH  11  78
ENDBRANCH   9  11
ENDBRANCH   6   7
BRANCH   6  81
ATOM     81  CB  SER A   9      15.444  19.003  18.710  0.00  0.00    +0.166 C 
BRANCH  81  82
ATOM     82  OG  SER A   9      16.237  18.047  18.035  0.00  0.00    -0.380 OA
ATOM     83  H   SER A   9      17.148  18.042  18.424  0.00  0.00    +0.211 HD
ENDBRANCH  81  82
ENDBRANCH   6  81
ENDBRANCH   3   6
ENDBRANCH   1   2
BRANCH   1  86
ATOM     84  C   PHE A   7      13.412  23.019  16.398  0.00  0.00    +0.241 C 
ATOM     85  O   PHE A   7      12.372  22.910  17.051  0.00  0.00    -0.273 OA
ATOM     86  N   ARG A   8      13.745  22.172  15.428  0.00  0.00    -0.297 N 
ATOM     87  H   ARG A   8      14.624  22.323  14.893  0.00  0.00    +0.150 HD
BRANCH  84  88
ATOM     88  CA  PHE A   7      14.385  24.164  16.665  0.00  0.00    +0.153 C 
BRANCH  88  91
ATOM     89  C   GLN A   6      16.251  22.775  17.376  0.00  0.00    +0.241 C 
ATOM     90  O   GLN A   6      15.578  22.213  18.236  0.00  0.00    -0.273 OA
ATOM     91  N   PHE A   7      15.769  23.719  16.575  0.00  0.00    -0.297 N 
ATOM     92  H   PHE A   7      16.395  24.151  15.866  0.00  0.00    +0.150 HD
BRANCH  89  93
ATOM     93  CA  GLN A   6      17.709  22.408  17.177  0.00  0.00    +0.149 C 
BRANCH  93  95
ATOM     94  C   CYS A   5      17.321  21.033  15.200  0.00  0.00    +0.242 C 
ATOM     95  N   GLN A   6      17.961  22.036  15.791  0.00  0.00    -0.297 N 
ATOM     96  H   GLN A   6      18.665  22.573  15.246  0.00  0.00    +0.150 HD
ATOM     97  O   CYS A   5      16.472  20.350  15.767  0.00  0.00    -0.273 OA
BRANCH  94  98
ATOM     98  CA  CYS A   5      17.694  20.778  13.743  0.00  0.00    +0.160 C 
BRANCH  98 101
ATOM     99  C   GLY A   4      17.009  23.013  13.093  0.00  0.00    +0.243 C 
ATOM    100  O   GLY A   4      15.903  22.869  13.615  0.00  0.00    -0.273 OA
ATOM    101  N   CYS A   5      17.935  22.059  13.093  0.00  0.00    -0.296 N 
ATOM    102  H   CYS A   5      18.846  22.230  12.621  0.00  0.00    +0.150 HD
BRANCH  99 103
ATOM    103  CA  GLY A   4      17.384  24.317  12.409  0.00  0.00    +0.176 C 
BRANCH 103 106
ATOM    104  C   GLN A   3      18.724  25.163  14.228  0.00  0.00    +0.241 C 
ATOM    105  O   GLN A   3      17.760  25.134  14.995  0.00  0.00    -0.273 OA
ATOM    106  N   GLY A   4      18.639  24.807  12.950  0.00  0.00    -0.295 N 
ATOM    107  H   GLY A   4      19.475  24.880  12.335  0.00  0.00    +0.150 HD
BRANCH 104 108
ATOM    108  CA  GLN A   3      20.092  25.643  14.710  0.00  0.00    +0.149 C 
BRANCH 108 111
ATOM    109  C   PHE A   2      21.337  23.607  14.215  0.00  0.00    +0.241 C 
ATOM    110  O   PHE A   2      20.620  22.935  14.952  0.00  0.00    -0.273 OA
ATOM    111  N   GLN A   3      21.157  24.912  14.034  0.00  0.00    -0.297 N 
ATOM    112  H   GLN A   3      21.794  25.426  13.392  0.00  0.00    +0.150 HD
BRANCH 109 113
ATOM    113  CA  PHE A   2      22.499  22.963  13.449  0.00  0.00    +0.153 C 
BRANCH 113 115
ATOM    114  C   ILE A   1      21.574  23.338  11.237  0.00  0.00    +0.238 C 
ATOM    115  N   PHE A   2      22.580  23.488  12.090  0.00  0.00    -0.297 N 
ATOM    116  H   PHE A   2      23.440  23.988  11.785  0.00  0.00    +0.150 HD
ATOM    117  O   ILE A   1      20.535  22.754  11.532  0.00  0.00    -0.274 OA
BRANCH 114 118
ATOM    118  CA  ILE A   1      21.764  23.949   9.851  0.00  0.00    +0.145 C 
BRANCH 118 119
ATOM    119  N   ILE A   1      22.495  25.199   9.984  0.00  0.00    -0.238 NA
ATOM    120  H   ILE A   1      23.457  25.274   9.595  0.00  0.00    +0.142 HD
ENDBRANCH 118 119
BRANCH 118 121
ATOM    121  CB  ILE A   1      22.519  22.968   8.939  0.00  0.00    +0.025 C 
ATOM    122  CG2 ILE A   1      21.768  21.652   8.851  0.00  0.00    +0.002 C 
BRANCH 121 123
ATOM    123  CG1 ILE A   1      22.665  23.584   7.547  0.00  0.00    +0.002 C 
ATOM    124  CD1 ILE A   1      23.482  22.757   6.593  0.00  0.00    +0.000 C 
ENDBRANCH 121 123
ENDBRANCH 118 121
ENDBRANCH 114 118
ENDBRANCH 113 115
BRANCH 113 125
ATOM    125  CB  PHE A   2      23.805  23.230  14.198  0.00  0.00    +0.055 C 
BRANCH 125 126
ATOM    126  CG  PHE A   2      23.797  22.741  15.616  0.00  0.00    -0.020 A 
ATOM    127  CD2 PHE A   2      23.433  23.592  16.658  0.00  0.00    -0.004 A 
ATOM    128  CE2 PHE A   2      23.392  23.134  17.967  0.00  0.00    -0.000 A 
ATOM    129  CZ  PHE A   2      23.720  21.810  18.249  0.00  0.00    -0.000 A 
ATOM    130  CE1 PHE A   2      24.086  20.956  17.221  0.00  0.00    -0.000 A 
ATOM    131  CD1 PHE A   2      24.122  21.424  15.910  0.00  0.00    -0.004 A 
ENDBRANCH 125 126
ENDBRANCH 113 125
ENDBRANCH 109 113
ENDBRANCH 108 111
BRANCH 108 132
ATOM    132  CB  GLN A   3      20.234  27.145  14.441  0.00  0.00    +0.039 C 
BRANCH 132 133
ATOM    133  CG  GLN A   3      20.017  28.027  15.660  0.00  0.00    +0.087 C 
BRANCH 133 134
ATOM    134  CD  GLN A   3      21.139  27.893  16.673  0.00  0.00    +0.219 C 
ATOM    135  OE1 GLN A   3      21.378  26.811  17.217  0.00  0.00    -0.275 OA
ATOM    136  NE2 GLN A   3      21.840  28.990  16.925  0.00  0.00    -0.329 N 
ATOM    137 HE21 GLN A   3      22.627  28.960  17.605  0.00  0.00    +0.145 HD
ATOM    138 HE22 GLN A   3      21.603  29.881  16.443  0.00  0.00    +0.145 HD
ENDBRANCH 133 134
ENDBRANCH 132 133
ENDBRANCH 108 132
ENDBRANCH 104 108
ENDBRANCH 103 106
ENDBRANCH  99 103
ENDBRANCH  98 101
BRANCH  98 139
ATOM    139  CB  CYS A   5      18.946  19.905  13.672  0.00  0.00    +0.098 C 
ATOM    140  SG  CYS A   5      19.483  19.567  11.981  0.00  0.00    -0.080 S 
ENDBRANCH  98 139
ENDBRANCH  94  98
ENDBRANCH  93  95
BRANCH  93 141
ATOM    141  CB  GLN A   6      18.605  23.591  17.576  0.00  0.00    +0.039 C 
BRANCH 141 142
ATOM    142  CG  GLN A   6      18.436  24.054  19.013  0.00  0.00    +0.087 C 
BRANCH 142 143
ATOM    143  CD  GLN A   6      19.523  25.023  19.447  0.00  0.00    +0.219 C 
ATOM    144  NE2 GLN A   6      20.378  24.573  20.357  0.00  0.00    -0.329 N 
ATOM    145 HE21 GLN A   6      20.275  23.610  20.735  0.00  0.00    +0.145 HD
ATOM    146 HE22 GLN A   6      21.150  25.184  20.692  0.00  0.00    +0.145 HD
ATOM    147  OE1 GLN A   6      19.600  26.157  18.966  0.00  0.00    -0.275 OA
ENDBRANCH 142 143
ENDBRANCH 141 142
ENDBRANCH  93 141
ENDBRANCH  89  93
ENDBRANCH  88  91
BRANCH  88 148
ATOM    148  CB  PHE A   7      14.133  25.307  15.677  0.00  0.00    +0.055 C 
BRANCH 148 149
ATOM    149  CG  PHE A   7      12.692  25.709  15.577  0.00  0.00    -0.020 A 
ATOM    150  CD2 PHE A   7      12.103  26.486  16.574  0.00  0.00    -0.004 A 
ATOM    151  CE2 PHE A   7      10.752  26.828  16.514  0.00  0.00    -0.000 A 
ATOM    152  CZ  PHE A   7       9.976  26.391  15.443  0.00  0.00    -0.000 A 
ATOM    153  CE1 PHE A   7      10.554  25.616  14.437  0.00  0.00    -0.000 A 
ATOM    154  CD1 PHE A   7      11.906  25.278  14.509  0.00  0.00    -0.004 A 
ENDBRANCH 148 149
ENDBRANCH  88 148
ENDBRANCH  84  88
ENDBRANCH   1  86
BRANCH   1 155
ATOM    155  CB  ARG A   8      13.427  20.287  13.885  0.00  0.00    +0.033 C 
BRANCH 155 156
ATOM    156  CG  ARG A   8      12.580  19.092  13.500  0.00  0.00    +0.045 C 
BRANCH 156 157
ATOM    157  CD  ARG A   8      11.146  19.516  13.246  0.00  0.00    +0.174 C 
BRANCH 157 158
ATOM    158  NE  ARG A   8      10.273  18.390  12.919  0.00  0.00    -0.265 N 
ATOM    159  CZ  ARG A   8       9.772  17.539  13.808  0.00  0.00    +0.342 C 
ATOM    160  NH2 ARG A   8      10.052  17.674  15.095  0.00  0.00    -0.292 N 
ATOM    161 HH21 ARG A   8       9.657  17.005  15.786  0.00  0.00    +0.255 HD
ATOM    162 HH22 ARG A   8      10.667  18.449  15.415  0.00  0.00    +0.255 HD
ATOM    163  NH1 ARG A   8       8.976  16.554  13.409  0.00  0.00    -0.292 N 
ATOM    164 HH11 ARG A   8       8.584  15.888  14.105  0.00  0.00    +0.255 HD
ATOM    165 HH12 ARG A   8       8.745  16.449  12.401  0.00  0.00    +0.255 HD
ATOM    166  HE  ARG A   8      10.026  18.245  11.919  0.00  0.00    +0.259 HD
ENDBRANCH 157 158
ENDBRANCH 156 157
ENDBRANCH 155 156
ENDBRANCH   1 155
TORSDOF 68
REMARK  Name = ../refined-set-2016/2i4z/2i4z_pocket.pdb
REMARK  277 active torsions:
REMARK  status: ('A' for Active; 'I' for Inactive)
REMARK    1  A    between atoms: _1  and  _3
REMARK    2  A    between atoms: _3  and  _4
REMARK    3  A    between atoms: _3  and  _6
REMARK    4  A    between atoms: _6  and  _7
REMARK    5  A    between atoms: _12  and  _13
REMARK    6  A    between atoms: _15  and  _17
REMARK    7  A    between atoms: _17  and  _18
REMARK    8  A    between atoms: _17  and  _20
REMARK    9  A    between atoms: _20  and  _21
REMARK   10  A    between atoms: _23  and  _25
REMARK   11  A    between atoms: _25  and  _26
REMARK   12  A    between atoms: _25  and  _28
REMARK   13  A    between atoms: _28  and  _29
REMARK   14  A    between atoms: _36  and  _37
REMARK   15  A    between atoms: _42  and  _44
REMARK   16  A    between atoms: _44  and  _45
REMARK   17  A    between atoms: _44  and  _47
REMARK   18  A    between atoms: _47  and  _48
REMARK   19  A    between atoms: _51  and  _53
REMARK   20  A    between atoms: _53  and  _54
REMARK   21  A    between atoms: _53  and  _56
REMARK   22  A    between atoms: _56  and  _57
REMARK   23  A    between atoms: _63  and  _65
REMARK   24  A    between atoms: _65  and  _66
REMARK   25  A    between atoms: _65  and  _68
REMARK   26  A    between atoms: _68  and  _69
REMARK   27  A    between atoms: _72  and  _74
REMARK   28  A    between atoms: _74  and  _75
REMARK   29  A    between atoms: _74  and  _77
REMARK   30  A    between atoms: _77  and  _78
REMARK   31  A    between atoms: _81  and  _83
REMARK   32  A    between atoms: _83  and  _84
REMARK   33  A    between atoms: _83  and  _86
REMARK   34  A    between atoms: _86  and  _87
REMARK   35  A    between atoms: _93  and  _95
REMARK   36  A    between atoms: _95  and  _96
REMARK   37  A    between atoms: _95  and  _98
REMARK   38  A    between atoms: _98  and  _99
REMARK   39  A    between atoms: _99  and  _100
REMARK   40  A    between atoms: _105  and  _107
REMARK   41  A    between atoms: _107  and  _108
REMARK   42  A    between atoms: _110  and  _112
REMARK   43  A    between atoms: _112  and  _113
REMARK   44  A    between atoms: _112  and  _115
REMARK   45  A    between atoms: _117  and  _119
REMARK   46  A    between atoms: _119  and  _120
REMARK   47  A    between atoms: _119  and  _122
REMARK   48  A    between atoms: _122  and  _123
REMARK   49  A    between atoms: _123  and  _124
REMARK   50  A    between atoms: _129  and  _131
REMARK   51  A    between atoms: _131  and  _132
REMARK   52  A    between atoms: _131  and  _134
REMARK   53  A    between atoms: _134  and  _135
REMARK   54  A    between atoms: _141  and  _143
REMARK   55  A    between atoms: _143  and  _144
REMARK   56  A    between atoms: _143  and  _146
REMARK   57  A    between atoms: _146  and  _147
REMARK   58  A    between atoms: _147  and  _148
REMARK   59  A    between atoms: _148  and  _149
REMARK   60  A    between atoms: _158  and  _160
REMARK   61  A    between atoms: _160  and  _161
REMARK   62  A    between atoms: _160  and  _163
REMARK   63  A    between atoms: _163  and  _164
REMARK   64  A    between atoms: _166  and  _168
REMARK   65  A    between atoms: _168  and  _169
REMARK   66  A    between atoms: _168  and  _171
REMARK   67  A    between atoms: _174  and  _176
REMARK   68  A    between atoms: _176  and  _177
REMARK   69  A    between atoms: _176  and  _179
REMARK   70  A    between atoms: _179  and  _180
REMARK   71  A    between atoms: _180  and  _181
REMARK   72  A    between atoms: _184  and  _186
REMARK   73  A    between atoms: _186  and  _187
REMARK   74  A    between atoms: _190  and  _192
REMARK   75  A    between atoms: _192  and  _193
REMARK   76  A    between atoms: _192  and  _195
REMARK   77  A    between atoms: _198  and  _200
REMARK   78  A    between atoms: _200  and  _201
REMARK   79  A    between atoms: _200  and  _203
REMARK   80  A    between atoms: _203  and  _204
REMARK   81  A    between atoms: _204  and  _205
REMARK   82  A    between atoms: _210  and  _212
REMARK   83  A    between atoms: _212  and  _213
REMARK   84  A    between atoms: _212  and  _215
REMARK   85  A    between atoms: _215  and  _216
REMARK   86  A    between atoms: _216  and  _217
REMARK   87  A    between atoms: _220  and  _222
REMARK   88  A    between atoms: _222  and  _223
REMARK   89  A    between atoms: _222  and  _225
REMARK   90  A    between atoms: _225  and  _226
REMARK   91  A    between atoms: _229  and  _231
REMARK   92  A    between atoms: _231  and  _232
REMARK   93  A    between atoms: _231  and  _234
REMARK   94  A    between atoms: _234  and  _235
REMARK   95  A    between atoms: _238  and  _240
REMARK   96  A    between atoms: _240  and  _241
REMARK   97  A    between atoms: _240  and  _243
REMARK   98  A    between atoms: _246  and  _248
REMARK   99  A    between atoms: _248  and  _249
REMARK  100  A    between atoms: _248  and  _251
REMARK  101  A    between atoms: _251  and  _252
REMARK  102  A    between atoms: _257  and  _259
REMARK  103  A    between atoms: _259  and  _260
REMARK  104  A    between atoms: _259  and  _262
REMARK  105  A    between atoms: _262  and  _263
REMARK  106  A    between atoms: _263  and  _264
REMARK  107  A    between atoms: _267  and  _269
REMARK  108  A    between atoms: _269  and  _270
REMARK  109  A    between atoms: _269  and  _272
REMARK  110  A    between atoms: _272  and  _273
REMARK  111  A    between atoms: _276  and  _278
REMARK  112  A    between atoms: _278  and  _279
REMARK  113  A    between atoms: _278  and  _281
REMARK  114  A    between atoms: _281  and  _282
REMARK  115  A    between atoms: _285  and  _287
REMARK  116  A    between atoms: _287  and  _288
REMARK  117  A    between atoms: _287  and  _290
REMARK  118  A    between atoms: _290  and  _291
REMARK  119  A    between atoms: _296  and  _297
REMARK  120  A    between atoms: _299  and  _301
REMARK  121  A    between atoms: _301  and  _302
REMARK  122  A    between atoms: _301  and  _304
REMARK  123  A    between atoms: _304  and  _305
REMARK  124  A    between atoms: _308  and  _310
REMARK  125  A    between atoms: _310  and  _311
REMARK  126  A    between atoms: _310  and  _313
REMARK  127  A    between atoms: _313  and  _314
REMARK  128  A    between atoms: _314  and  _315
REMARK  129  A    between atoms: _317  and  _319
REMARK  130  A    between atoms: _319  and  _320
REMARK  131  A    between atoms: _319  and  _322
REMARK  132  A    between atoms: _322  and  _323
REMARK  133  A    between atoms: _326  and  _328
REMARK  134  A    between atoms: _328  and  _329
REMARK  135  A    between atoms: _332  and  _334
REMARK  136  A    between atoms: _334  and  _335
REMARK  137  A    between atoms: _334  and  _337
REMARK  138  A    between atoms: _337  and  _338
REMARK  139  A    between atoms: _340  and  _342
REMARK  140  A    between atoms: _342  and  _343
REMARK  141  A    between atoms: _342  and  _345
REMARK  142  A    between atoms: _345  and  _346
REMARK  143  A    between atoms: _349  and  _351
REMARK  144  A    between atoms: _351  and  _352
REMARK  145  A    between atoms: _351  and  _354
REMARK  146  A    between atoms: _354  and  _355
REMARK  147  A    between atoms: _355  and  _356
REMARK  148  A    between atoms: _358  and  _360
REMARK  149  A    between atoms: _360  and  _361
REMARK  150  A    between atoms: _360  and  _363
REMARK  151  A    between atoms: _366  and  _368
REMARK  152  A    between atoms: _368  and  _369
REMARK  153  A    between atoms: _368  and  _371
REMARK  154  A    between atoms: _371  and  _372
REMARK  155  A    between atoms: _375  and  _377
REMARK  156  A    between atoms: _377  and  _378
REMARK  157  A    between atoms: _377  and  _380
REMARK  158  A    between atoms: _380  and  _381
REMARK  159  A    between atoms: _384  and  _386
REMARK  160  A    between atoms: _386  and  _387
REMARK  161  A    between atoms: _386  and  _389
REMARK  162  A    between atoms: _389  and  _390
REMARK  163  A    between atoms: _392  and  _394
REMARK  164  A    between atoms: _394  and  _395
REMARK  165  A    between atoms: _394  and  _397
REMARK  166  A    between atoms: _397  and  _398
REMARK  167  A    between atoms: _398  and  _399
REMARK  168  A    between atoms: _402  and  _404
REMARK  169  A    between atoms: _404  and  _405
REMARK  170  A    between atoms: _404  and  _407
REMARK  171  A    between atoms: _407  and  _408
REMARK  172  A    between atoms: _414  and  _416
REMARK  173  A    between atoms: _416  and  _417
REMARK  174  A    between atoms: _416  and  _419
REMARK  175  A    between atoms: _419  and  _420
REMARK  176  A    between atoms: _420  and  _421
REMARK  177  A    between atoms: _423  and  _425
REMARK  178  A    between atoms: _425  and  _426
REMARK  179  A    between atoms: _425  and  _428
REMARK  180  A    between atoms: _428  and  _429
REMARK  181  A    between atoms: _432  and  _434
REMARK  182  A    between atoms: _434  and  _435
REMARK  183  A    between atoms: _434  and  _437
REMARK  184  A    between atoms: _437  and  _438
REMARK  185  A    between atoms: _441  and  _443
REMARK  186  A    between atoms: _443  and  _444
REMARK  187  A    between atoms: _443  and  _446
REMARK  188  A    between atoms: _446  and  _447
REMARK  189  A    between atoms: _450  and  _452
REMARK  190  A    between atoms: _452  and  _453
REMARK  191  A    between atoms: _452  and  _455
REMARK  192  A    between atoms: _455  and  _456
REMARK  193  A    between atoms: _462  and  _464
REMARK  194  A    between atoms: _464  and  _465
REMARK  195  A    between atoms: _464  and  _467
REMARK  196  A    between atoms: _467  and  _468
REMARK  197  A    between atoms: _474  and  _476
REMARK  198  A    between atoms: _476  and  _477
REMARK  199  A    between atoms: _476  and  _479
REMARK  200  A    between atoms: _479  and  _480
REMARK  201  A    between atoms: _480  and  _481
REMARK  202  A    between atoms: _483  and  _485
REMARK  203  A    between atoms: _485  and  _486
REMARK  204  A    between atoms: _485  and  _488
REMARK  205  A    between atoms: _488  and  _489
REMARK  206  A    between atoms: _489  and  _490
REMARK  207  A    between atoms: _490  and  _491
REMARK  208  A    between atoms: _491  and  _492
REMARK  209  A    between atoms: _496  and  _498
REMARK  210  A    between atoms: _498  and  _499
REMARK  211  A    between atoms: _498  and  _501
REMARK  212  A    between atoms: _501  and  _502
REMARK  213  A    between atoms: _508  and  _510
REMARK  214  A    between atoms: _510  and  _511
REMARK  215  A    between atoms: _510  and  _513
REMARK  216  A    between atoms: _513  and  _514
REMARK  217  A    between atoms: _517  and  _519
REMARK  218  A    between atoms: _519  and  _520
REMARK  219  A    between atoms: _519  and  _522
REMARK  220  A    between atoms: _522  and  _523
REMARK  221  A    between atoms: _526  and  _528
REMARK  222  A    between atoms: _528  and  _529
REMARK  223  A    between atoms: _528  and  _531
REMARK  224  A    between atoms: _534  and  _536
REMARK  225  A    between atoms: _536  and  _537
REMARK  226  A    between atoms: _536  and  _539
REMARK  227  A    between atoms: _539  and  _540
REMARK  228  A    between atoms: _545  and  _547
REMARK  229  A    between atoms: _547  and  _548
REMARK  230  A    between atoms: _547  and  _550
REMARK  231  A    between atoms: _553  and  _555
REMARK  232  A    between atoms: _555  and  _556
REMARK  233  A    between atoms: _555  and  _558
REMARK  234  A    between atoms: _558  and  _559
REMARK  235  A    between atoms: _562  and  _564
REMARK  236  A    between atoms: _564  and  _565
REMARK  237  A    between atoms: _564  and  _567
REMARK  238  A    between atoms: _567  and  _568
REMARK  239  A    between atoms: _571  and  _573
REMARK  240  A    between atoms: _573  and  _574
REMARK  241  A    between atoms: _573  and  _576
REMARK  242  A    between atoms: _576  and  _577
REMARK  243  A    between atoms: _580  and  _582
REMARK  244  A    between atoms: _582  and  _583
REMARK  245  A    between atoms: _582  and  _585
REMARK  246  A    between atoms: _585  and  _586
REMARK  247  A    between atoms: _586  and  _587
REMARK  248  A    between atoms: _589  and  _591
REMARK  249  A    between atoms: _591  and  _592
REMARK  250  A    between atoms: _591  and  _594
REMARK  251  A    between atoms: _594  and  _595
REMARK  252  A    between atoms: _597  and  _599
REMARK  253  A    between atoms: _599  and  _600
REMARK  254  A    between atoms: _599  and  _602
REMARK  255  A    between atoms: _602  and  _603
REMARK  256  A    between atoms: _606  and  _608
REMARK  257  A    between atoms: _608  and  _609
REMARK  258  A    between atoms: _608  and  _611
REMARK  259  A    between atoms: _611  and  _612
REMARK  260  A    between atoms: _617  and  _619
REMARK  261  A    between atoms: _619  and  _620
REMARK  262  A    between atoms: _619  and  _622
REMARK  263  A    between atoms: _622  and  _623
REMARK  264  A    between atoms: _626  and  _628
REMARK  265  A    between atoms: _628  and  _629
REMARK  266  A    between atoms: _628  and  _631
REMARK  267  A    between atoms: _631  and  _632
REMARK  268  A    between atoms: _632  and  _633
REMARK  269  A    between atoms: _638  and  _640
REMARK  270  A    between atoms: _640  and  _641
REMARK  271  A    between atoms: _640  and  _643
REMARK  272  A    between atoms: _643  and  _644
REMARK  273  A    between atoms: _647  and  _649
REMARK  274  A    between atoms: _649  and  _650
REMARK  275  A    between atoms: _649  and  _652
REMARK  276  A    between atoms: _652  and  _653
REMARK  277  A    between atoms: _658  and  _659
REMARK                            x       y       z     vdW  Elec       q    Type
REMARK                         _______ _______ _______ _____ _____    ______ ____
ROOT
ATOM      1  C   TYR A   6      15.270   7.860  16.204  0.00  0.00    +0.241 C 
ATOM      2  N   THR A   7      14.275   7.316  16.895  0.00  0.00    -0.295 N 
ATOM      3  H   THR A   7      14.044   7.693  17.836  0.00  0.00    +0.150 HD
ATOM      4  O   TYR A   6      15.622   7.445  15.099  0.00  0.00    -0.273 OA
ENDROOT
BRANCH   2   5
ATOM      5  CA  THR A   7      13.498   6.199  16.361  0.00  0.00    +0.176 C 
BRANCH   5   6
ATOM      6  C   THR A   7      12.649   6.746  15.215  0.00  0.00    +0.243 C 
ATOM      7  N   MET A   8      11.955   7.840  15.486  0.00  0.00    -0.297 N 
ATOM      8  H   MET A   8      12.025   8.266  16.432  0.00  0.00    +0.150 HD
ATOM      9  O   THR A   7      12.636   6.212  14.114  0.00  0.00    -0.273 OA
BRANCH   7  10
ATOM     10  CA  MET A   8      11.096   8.458  14.488  0.00  0.00    +0.149 C 
BRANCH  10  11
ATOM     11  C   MET A   8      11.861   9.084  13.340  0.00  0.00    +0.241 C 
ATOM     12  N   LEU A   9      13.062   9.574  13.630  0.00  0.00    -0.297 N 
ATOM     13  H   LEU A   9      13.406   9.530  14.610  0.00  0.00    +0.150 HD
ATOM     14  O   MET A   8      11.379   9.106  12.204  0.00  0.00    -0.273 OA
BRANCH  12  15
ATOM     15  CA  LEU A   9      13.908  10.173  12.602  0.00  0.00    +0.149 C 
BRANCH  15  16
ATOM     16  C   LEU A   9      14.288   9.127  11.547  0.00  0.00    +0.241 C 
ATOM     17  N   ALA A  10      14.401   7.868  11.966  0.00  0.00    -0.297 N 
ATOM     18  H   ALA A  10      14.243   7.642  12.969  0.00  0.00    +0.150 HD
ATOM     19  O   LEU A   9      14.480   9.452  10.369  0.00  0.00    -0.273 OA
BRANCH  17  20
ATOM     20  CA  ALA A  10      14.747   6.796  11.023  0.00  0.00    +0.149 C 
ATOM     21  CB  ALA A  10      14.841   5.449  11.758  0.00  0.00    +0.031 C 
BRANCH  20  22
ATOM     22  C   ALA A  10      13.672   6.737   9.944  0.00  0.00    +0.241 C 
ATOM     23  N   SER A  11      12.430   7.032  10.325  0.00  0.00    -0.295 N 
ATOM     24  H   SER A  11      12.246   7.282  11.318  0.00  0.00    +0.150 HD
ATOM     25  O   ALA A  10      13.960   6.453   8.786  0.00  0.00    -0.273 OA
BRANCH  23  26
ATOM     26  CA  SER A  11      11.324   7.011   9.375  0.00  0.00    +0.178 C 
BRANCH  26  27
ATOM     27  C   SER A  11      11.566   7.970   8.227  0.00  0.00    +0.243 C 
ATOM     28  N   LEU A  12      12.258   9.077   8.495  0.00  0.00    -0.297 N 
ATOM     29  H   LEU A  12      12.630   9.232   9.454  0.00  0.00    +0.150 HD
ATOM     30  O   SER A  11      11.137   7.706   7.108  0.00  0.00    -0.273 OA
BRANCH  28  31
ATOM     31  CA  LEU A  12      12.499  10.074   7.456  0.00  0.00    +0.149 C 
BRANCH  31  32
ATOM     32  C   LEU A  12      13.815   9.875   6.708  0.00  0.00    +0.241 C 
ATOM     33  N   MET A  13      14.507   8.775   6.993  0.00  0.00    -0.298 N 
ATOM     34  H   MET A  13      14.124   8.093   7.678  0.00  0.00    +0.150 HD
ATOM     35  O   LEU A  12      14.191  10.709   5.873  0.00  0.00    -0.273 OA
BRANCH  33  36
ATOM     36  CA  MET A  13      15.794   8.511   6.359  0.00  0.00    +0.138 C 
BRANCH  36  37
ATOM     37  C   MET A  13      15.903   7.266   5.483  0.00  0.00    +0.227 C 
ATOM     38  O   MET A  13      15.146   6.307   5.613  0.00  0.00    -0.286 OA
ENDBRANCH  36  37
BRANCH  36  39
ATOM     39  CB  MET A  13      16.893   8.382   7.429  0.00  0.00    +0.039 C 
BRANCH  39  40
ATOM     40  CG  MET A  13      17.068   9.563   8.377  0.00  0.00    +0.060 C 
BRANCH  40  41
ATOM     41  SD  MET A  13      18.266   9.188   9.708  0.00  0.00    -0.139 S 
ATOM     42  CE  MET A  13      19.351  10.640   9.619  0.00  0.00    +0.069 C 
ENDBRANCH  40  41
ENDBRANCH  39  40
ENDBRANCH  36  39
ENDBRANCH  33  36
ENDBRANCH  31  32
BRANCH  31  43
ATOM     43  CB  LEU A  12      12.482  11.486   8.062  0.00  0.00    +0.029 C 
BRANCH  43  44
ATOM     44  CG  LEU A  12      11.408  11.872   9.092  0.00  0.00    +0.002 C 
ATOM     45  CD2 LEU A  12      11.491  13.370   9.388  0.00  0.00    +0.000 C 
ATOM     46  CD1 LEU A  12      10.047  11.532   8.582  0.00  0.00    +0.000 C 
ENDBRANCH  43  44
ENDBRANCH  31  43
ENDBRANCH  28  31
ENDBRANCH  26  27
BRANCH  26  47
ATOM     47  CB  SER A  11      10.006   7.403  10.050  0.00  0.00    +0.166 C 
BRANCH  47  48
ATOM     48  OG  SER A  11       9.669   6.527  11.101  0.00  0.00    -0.380 OA
ATOM     49  H   SER A  11       8.814   6.815  11.508  0.00  0.00    +0.211 HD
ENDBRANCH  47  48
ENDBRANCH  26  47
ENDBRANCH  23  26
ENDBRANCH  20  22
ENDBRANCH  17  20
ENDBRANCH  15  16
BRANCH  15  50
ATOM     50  CB  LEU A   9      15.178  10.745  13.239  0.00  0.00    +0.029 C 
BRANCH  50  51
ATOM     51  CG  LEU A   9      16.170  11.389  12.275  0.00  0.00    +0.002 C 
ATOM     52  CD2 LEU A   9      17.495  11.621  12.983  0.00  0.00    +0.000 C 
ATOM     53  CD1 LEU A   9      15.595  12.697  11.757  0.00  0.00    +0.000 C 
ENDBRANCH  50  51
ENDBRANCH  15  50
ENDBRANCH  12  15
ENDBRANCH  10  11
BRANCH  10  54
ATOM     54  CB  MET A   8      10.185   9.469  15.177  0.00  0.00    +0.041 C 
BRANCH  54  55
ATOM     55  CG  MET A   8       9.196   8.762  16.096  0.00  0.00    +0.060 C 
BRANCH  55  56
ATOM     56  SD  MET A   8       7.944   9.813  16.746  0.00  0.00    -0.139 S 
ATOM     57  CE  MET A   8       7.073  10.271  15.194  0.00  0.00    +0.069 C 
ENDBRANCH  55  56
ENDBRANCH  54  55
ENDBRANCH  10  54
ENDBRANCH   7  10
ENDBRANCH   5   6
BRANCH   5  58
ATOM     58  CB  THR A   7      12.556   5.601  17.439  0.00  0.00    +0.137 C 
ATOM     59  CG2 THR A   7      11.612   4.574  16.832  0.00  0.00    +0.034 C 
BRANCH  58  60
ATOM     60  OG1 THR A   7      13.341   4.980  18.464  0.00  0.00    -0.382 OA
ATOM     61  HG1 THR A   7      13.933   5.656  18.879  0.00  0.00    +0.210 HD
ENDBRANCH  58  60
ENDBRANCH   5  58
ENDBRANCH   2   5
BRANCH   1  62
ATOM     62  CA  TYR A   6      15.982   9.043  16.846  0.00  0.00    +0.153 C 
BRANCH  62  64
ATOM     63  C   ILE A   5      14.192  10.609  17.334  0.00  0.00    +0.241 C 
ATOM     64  N   TYR A   6      15.138   9.787  17.788  0.00  0.00    -0.297 N 
ATOM     65  H   TYR A   6      15.278   9.673  18.812  0.00  0.00    +0.150 HD
ATOM     66  O   ILE A   5      13.987  10.768  16.128  0.00  0.00    -0.273 OA
BRANCH  63  67
ATOM     67  CA  ILE A   5      13.350  11.372  18.371  0.00  0.00    +0.149 C 
BRANCH  67  69
ATOM     68  C   ILE A   4      12.313   9.396  19.281  0.00  0.00    +0.241 C 
ATOM     69  N   ILE A   5      12.988  10.520  19.492  0.00  0.00    -0.297 N 
ATOM     70  H   ILE A   5      13.258  10.791  20.459  0.00  0.00    +0.150 HD
ATOM     71  O   ILE A   4      11.956   9.044  18.152  0.00  0.00    -0.273 OA
BRANCH  68  72
ATOM     72  CA  ILE A   4      12.001   8.539  20.514  0.00  0.00    +0.149 C 
BRANCH  72  74
ATOM     73  C   GLU A   3      14.253   7.858  21.100  0.00  0.00    +0.241 C 
ATOM     74  N   ILE A   4      13.140   8.509  21.424  0.00  0.00    -0.297 N 
ATOM     75  H   ILE A   4      13.081   9.003  22.337  0.00  0.00    +0.150 HD
ATOM     76  O   GLU A   3      14.384   7.267  20.026  0.00  0.00    -0.273 OA
BRANCH  73  77
ATOM     77  CA  GLU A   3      15.398   7.901  22.116  0.00  0.00    +0.149 C 
BRANCH  77  79
ATOM     78  C   HIS A   2      15.659  10.258  21.848  0.00  0.00    +0.241 C 
ATOM     79  N   GLU A   3      15.390   9.247  22.661  0.00  0.00    -0.297 N 
ATOM     80  H   GLU A   3      15.178   9.413  23.666  0.00  0.00    +0.150 HD
ATOM     81  O   HIS A   2      15.928  10.085  20.655  0.00  0.00    -0.273 OA
BRANCH  78  82
ATOM     82  CA  HIS A   2      15.615  11.658  22.433  0.00  0.00    +0.155 C 
BRANCH  82  84
ATOM     83  C   VAL A   1      13.349  11.771  23.189  0.00  0.00    +0.238 C 
ATOM     84  N   HIS A   2      14.638  11.834  23.493  0.00  0.00    -0.297 N 
ATOM     85  H   HIS A   2      14.944  12.006  24.472  0.00  0.00    +0.150 HD
ATOM     86  O   VAL A   1      12.962  11.548  22.039  0.00  0.00    -0.274 OA
BRANCH  83  87
ATOM     87  CA  VAL A   1      12.337  11.982  24.307  0.00  0.00    +0.145 C 
BRANCH  87  88
ATOM     88  CB  VAL A   1      12.262  13.495  24.663  0.00  0.00    +0.025 C 
ATOM     89  CG2 VAL A   1      10.820  13.856  25.020  0.00  0.00    +0.002 C 
ATOM     90  CG1 VAL A   1      12.702  14.348  23.483  0.00  0.00    +0.002 C 
ENDBRANCH  87  88
BRANCH  87  91
ATOM     91  N   VAL A   1      12.466  11.177  25.513  0.00  0.00    -0.238 NA
ATOM     92  H   VAL A   1      12.440  11.643  26.442  0.00  0.00    +0.142 HD
ENDBRANCH  87  91
ENDBRANCH  83  87
ENDBRANCH  82  84
BRANCH  82  93
ATOM     93  CB  HIS A   2      16.997  12.103  22.904  0.00  0.00    +0.076 C 
BRANCH  93  94
ATOM     94  CG  HIS A   2      17.157  13.588  22.925  0.00  0.00    +0.082 A 
ATOM     95  ND1 HIS A   2      16.837  14.358  24.020  0.00  0.00    -0.227 NA
ATOM     96  CE1 HIS A   2      17.001  15.635  23.722  0.00  0.00    +0.199 A 
ATOM     97  NE2 HIS A   2      17.418  15.720  22.472  0.00  0.00    -0.221 NA
ATOM     98  CD2 HIS A   2      17.525  14.455  21.952  0.00  0.00    +0.115 A 
ENDBRANCH  93  94
ENDBRANCH  82  93
ENDBRANCH  78  82
ENDBRANCH  77  79
BRANCH  77  99
ATOM     99  CB  GLU A   3      15.223   6.855  23.237  0.00  0.00    +0.041 C 
BRANCH  99 100
ATOM    100  CG  GLU A   3      16.422   6.809  24.213  0.00  0.00    +0.116 C 
BRANCH 100 101
ATOM    101  CD  GLU A   3      16.253   5.799  25.354  0.00  0.00    +0.365 C 
ATOM    102  OE2 GLU A   3      17.232   5.593  26.104  0.00  0.00    -0.246 OA
ATOM    103  OE1 GLU A   3      15.148   5.223  25.511  0.00  0.00    -0.246 OA
ENDBRANCH 100 101
ENDBRANCH  99 100
ENDBRANCH  77  99
ENDBRANCH  73  77
ENDBRANCH  72  74
BRANCH  72 104
ATOM    104  CB  ILE A   4      10.730   9.064  21.231  0.00  0.00    +0.027 C 
ATOM    105  CG2 ILE A   4       9.554   9.176  20.236  0.00  0.00    +0.002 C 
BRANCH 104 106
ATOM    106  CG1 ILE A   4      10.365   8.109  22.365  0.00  0.00    +0.002 C 
ATOM    107  CD1 ILE A   4       9.120   8.504  23.141  0.00  0.00    +0.000 C 
ENDBRANCH 104 106
ENDBRANCH  72 104
ENDBRANCH  68  72
ENDBRANCH  67  69
BRANCH  67 108
ATOM    108  CB  ILE A   5      14.138  12.629  18.848  0.00  0.00    +0.027 C 
ATOM    109  CG2 ILE A   5      14.981  13.193  17.703  0.00  0.00    +0.002 C 
BRANCH 108 110
ATOM    110  CG1 ILE A   5      13.155  13.681  19.388  0.00  0.00    +0.002 C 
ATOM    111  CD1 ILE A   5      13.817  14.937  20.007  0.00  0.00    +0.000 C 
ENDBRANCH 108 110
ENDBRANCH  67 108
ENDBRANCH  63  67
ENDBRANCH  62  64
BRANCH  62 112
ATOM    112  CB  TYR A   6      17.269   8.570  17.526  0.00  0.00    +0.055 C 
BRANCH 112 113
ATOM    113  CG  TYR A   6      18.093   9.707  18.067  0.00  0.00    -0.020 A 
ATOM    114  CD2 TYR A   6      18.561   9.690  19.380  0.00  0.00    -0.001 A 
ATOM    115  CE2 TYR A   6      19.287  10.752  19.897  0.00  0.00    +0.036 A 
ATOM    116  CZ  TYR A   6      19.556  11.851  19.100  0.00  0.00    +0.134 A 
ATOM    117  CE1 TYR A   6      19.104  11.890  17.786  0.00  0.00    +0.036 A 
ATOM    118  CD1 TYR A   6      18.379  10.819  17.278  0.00  0.00    -0.001 A 
BRANCH 116 119
ATOM    119  OH  TYR A   6      20.272  12.912  19.624  0.00  0.00    -0.506 OA
ATOM    120  HH  TYR A   6      19.785  13.286  20.400  0.00  0.00    +0.292 HD
ENDBRANCH 116 119
ENDBRANCH 112 113
ENDBRANCH  62 112
ENDBRANCH   1  62
TORSDOF 53
REMARK  Name = ../refined-set-2016/2i4z/2i4z_pocket.pdb
REMARK  277 active torsions:
REMARK  status: ('A' for Active; 'I' for Inactive)
REMARK    1  A    between atoms: _1  and  _3
REMARK    2  A    between atoms: _3  and  _4
REMARK    3  A    between atoms: _3  and  _6
REMARK    4  A    between atoms: _6  and  _7
REMARK    5  A    between atoms: _12  and  _13
REMARK    6  A    between atoms: _15  and  _17
REMARK    7  A    between atoms: _17  and  _18
REMARK    8  A    between atoms: _17  and  _20
REMARK    9  A    between atoms: _20  and  _21
REMARK   10  A    between atoms: _23  and  _25
REMARK   11  A    between atoms: _25  and  _26
REMARK   12  A    between atoms: _25  and  _28
REMARK   13  A    between atoms: _28  and  _29
REMARK   14  A    between atoms: _36  and  _37
REMARK   15  A    between atoms: _42  and  _44
REMARK   16  A    between atoms: _44  and  _45
REMARK   17  A    between atoms: _44  and  _47
REMARK   18  A    between atoms: _47  and  _48
REMARK   19  A    between atoms: _51  and  _53
REMARK   20  A    between atoms: _53  and  _54
REMARK   21  A    between atoms: _53  and  _56
REMARK   22  A    between atoms: _56  and  _57
REMARK   23  A    between atoms: _63  and  _65
REMARK   24  A    between atoms: _65  and  _66
REMARK   25  A    between atoms: _65  and  _68
REMARK   26  A    between atoms: _68  and  _69
REMARK   27  A    between atoms: _72  and  _74
REMARK   28  A    between atoms: _74  and  _75
REMARK   29  A    between atoms: _74  and  _77
REMARK   30  A    between atoms: _77  and  _78
REMARK   31  A    between atoms: _81  and  _83
REMARK   32  A    between atoms: _83  and  _84
REMARK   33  A    between atoms: _83  and  _86
REMARK   34  A    between atoms: _86  and  _87
REMARK   35  A    between atoms: _93  and  _95
REMARK   36  A    between atoms: _95  and  _96
REMARK   37  A    between atoms: _95  and  _98
REMARK   38  A    between atoms: _98  and  _99
REMARK   39  A    between atoms: _99  and  _100
REMARK   40  A    between atoms: _105  and  _107
REMARK   41  A    between atoms: _107  and  _108
REMARK   42  A    between atoms: _110  and  _112
REMARK   43  A    between atoms: _112  and  _113
REMARK   44  A    between atoms: _112  and  _115
REMARK   45  A    between atoms: _117  and  _119
REMARK   46  A    between atoms: _119  and  _120
REMARK   47  A    between atoms: _119  and  _122
REMARK   48  A    between atoms: _122  and  _123
REMARK   49  A    between atoms: _123  and  _124
REMARK   50  A    between atoms: _129  and  _131
REMARK   51  A    between atoms: _131  and  _132
REMARK   52  A    between atoms: _131  and  _134
REMARK   53  A    between atoms: _134  and  _135
REMARK   54  A    between atoms: _141  and  _143
REMARK   55  A    between atoms: _143  and  _144
REMARK   56  A    between atoms: _143  and  _146
REMARK   57  A    between atoms: _146  and  _147
REMARK   58  A    between atoms: _147  and  _148
REMARK   59  A    between atoms: _148  and  _149
REMARK   60  A    between atoms: _158  and  _160
REMARK   61  A    between atoms: _160  and  _161
REMARK   62  A    between atoms: _160  and  _163
REMARK   63  A    between atoms: _163  and  _164
REMARK   64  A    between atoms: _166  and  _168
REMARK   65  A    between atoms: _168  and  _169
REMARK   66  A    between atoms: _168  and  _171
REMARK   67  A    between atoms: _174  and  _176
REMARK   68  A    between atoms: _176  and  _177
REMARK   69  A    between atoms: _176  and  _179
REMARK   70  A    between atoms: _179  and  _180
REMARK   71  A    between atoms: _180  and  _181
REMARK   72  A    between atoms: _184  and  _186
REMARK   73  A    between atoms: _186  and  _187
REMARK   74  A    between atoms: _190  and  _192
REMARK   75  A    between atoms: _192  and  _193
REMARK   76  A    between atoms: _192  and  _195
REMARK   77  A    between atoms: _198  and  _200
REMARK   78  A    between atoms: _200  and  _201
REMARK   79  A    between atoms: _200  and  _203
REMARK   80  A    between atoms: _203  and  _204
REMARK   81  A    between atoms: _204  and  _205
REMARK   82  A    between atoms: _210  and  _212
REMARK   83  A    between atoms: _212  and  _213
REMARK   84  A    between atoms: _212  and  _215
REMARK   85  A    between atoms: _215  and  _216
REMARK   86  A    between atoms: _216  and  _217
REMARK   87  A    between atoms: _220  and  _222
REMARK   88  A    between atoms: _222  and  _223
REMARK   89  A    between atoms: _222  and  _225
REMARK   90  A    between atoms: _225  and  _226
REMARK   91  A    between atoms: _229  and  _231
REMARK   92  A    between atoms: _231  and  _232
REMARK   93  A    between atoms: _231  and  _234
REMARK   94  A    between atoms: _234  and  _235
REMARK   95  A    between atoms: _238  and  _240
REMARK   96  A    between atoms: _240  and  _241
REMARK   97  A    between atoms: _240  and  _243
REMARK   98  A    between atoms: _246  and  _248
REMARK   99  A    between atoms: _248  and  _249
REMARK  100  A    between atoms: _248  and  _251
REMARK  101  A    between atoms: _251  and  _252
REMARK  102  A    between atoms: _257  and  _259
REMARK  103  A    between atoms: _259  and  _260
REMARK  104  A    between atoms: _259  and  _262
REMARK  105  A    between atoms: _262  and  _263
REMARK  106  A    between atoms: _263  and  _264
REMARK  107  A    between atoms: _267  and  _269
REMARK  108  A    between atoms: _269  and  _270
REMARK  109  A    between atoms: _269  and  _272
REMARK  110  A    between atoms: _272  and  _273
REMARK  111  A    between atoms: _276  and  _278
REMARK  112  A    between atoms: _278  and  _279
REMARK  113  A    between atoms: _278  and  _281
REMARK  114  A    between atoms: _281  and  _282
REMARK  115  A    between atoms: _285  and  _287
REMARK  116  A    between atoms: _287  and  _288
REMARK  117  A    between atoms: _287  and  _290
REMARK  118  A    between atoms: _290  and  _291
REMARK  119  A    between atoms: _296  and  _297
REMARK  120  A    between atoms: _299  and  _301
REMARK  121  A    between atoms: _301  and  _302
REMARK  122  A    between atoms: _301  and  _304
REMARK  123  A    between atoms: _304  and  _305
REMARK  124  A    between atoms: _308  and  _310
REMARK  125  A    between atoms: _310  and  _311
REMARK  126  A    between atoms: _310  and  _313
REMARK  127  A    between atoms: _313  and  _314
REMARK  128  A    between atoms: _314  and  _315
REMARK  129  A    between atoms: _317  and  _319
REMARK  130  A    between atoms: _319  and  _320
REMARK  131  A    between atoms: _319  and  _322
REMARK  132  A    between atoms: _322  and  _323
REMARK  133  A    between atoms: _326  and  _328
REMARK  134  A    between atoms: _328  and  _329
REMARK  135  A    between atoms: _332  and  _334
REMARK  136  A    between atoms: _334  and  _335
REMARK  137  A    between atoms: _334  and  _337
REMARK  138  A    between atoms: _337  and  _338
REMARK  139  A    between atoms: _340  and  _342
REMARK  140  A    between atoms: _342  and  _343
REMARK  141  A    between atoms: _342  and  _345
REMARK  142  A    between atoms: _345  and  _346
REMARK  143  A    between atoms: _349  and  _351
REMARK  144  A    between atoms: _351  and  _352
REMARK  145  A    between atoms: _351  and  _354
REMARK  146  A    between atoms: _354  and  _355
REMARK  147  A    between atoms: _355  and  _356
REMARK  148  A    between atoms: _358  and  _360
REMARK  149  A    between atoms: _360  and  _361
REMARK  150  A    between atoms: _360  and  _363
REMARK  151  A    between atoms: _366  and  _368
REMARK  152  A    between atoms: _368  and  _369
REMARK  153  A    between atoms: _368  and  _371
REMARK  154  A    between atoms: _371  and  _372
REMARK  155  A    between atoms: _375  and  _377
REMARK  156  A    between atoms: _377  and  _378
REMARK  157  A    between atoms: _377  and  _380
REMARK  158  A    between atoms: _380  and  _381
REMARK  159  A    between atoms: _384  and  _386
REMARK  160  A    between atoms: _386  and  _387
REMARK  161  A    between atoms: _386  and  _389
REMARK  162  A    between atoms: _389  and  _390
REMARK  163  A    between atoms: _392  and  _394
REMARK  164  A    between atoms: _394  and  _395
REMARK  165  A    between atoms: _394  and  _397
REMARK  166  A    between atoms: _397  and  _398
REMARK  167  A    between atoms: _398  and  _399
REMARK  168  A    between atoms: _402  and  _404
REMARK  169  A    between atoms: _404  and  _405
REMARK  170  A    between atoms: _404  and  _407
REMARK  171  A    between atoms: _407  and  _408
REMARK  172  A    between atoms: _414  and  _416
REMARK  173  A    between atoms: _416  and  _417
REMARK  174  A    between atoms: _416  and  _419
REMARK  175  A    between atoms: _419  and  _420
REMARK  176  A    between atoms: _420  and  _421
REMARK  177  A    between atoms: _423  and  _425
REMARK  178  A    between atoms: _425  and  _426
REMARK  179  A    between atoms: _425  and  _428
REMARK  180  A    between atoms: _428  and  _429
REMARK  181  A    between atoms: _432  and  _434
REMARK  182  A    between atoms: _434  and  _435
REMARK  183  A    between atoms: _434  and  _437
REMARK  184  A    between atoms: _437  and  _438
REMARK  185  A    between atoms: _441  and  _443
REMARK  186  A    between atoms: _443  and  _444
REMARK  187  A    between atoms: _443  and  _446
REMARK  188  A    between atoms: _446  and  _447
REMARK  189  A    between atoms: _450  and  _452
REMARK  190  A    between atoms: _452  and  _453
REMARK  191  A    between atoms: _452  and  _455
REMARK  192  A    between atoms: _455  and  _456
REMARK  193  A    between atoms: _462  and  _464
REMARK  194  A    between atoms: _464  and  _465
REMARK  195  A    between atoms: _464  and  _467
REMARK  196  A    between atoms: _467  and  _468
REMARK  197  A    between atoms: _474  and  _476
REMARK  198  A    between atoms: _476  and  _477
REMARK  199  A    between atoms: _476  and  _479
REMARK  200  A    between atoms: _479  and  _480
REMARK  201  A    between atoms: _480  and  _481
REMARK  202  A    between atoms: _483  and  _485
REMARK  203  A    between atoms: _485  and  _486
REMARK  204  A    between atoms: _485  and  _488
REMARK  205  A    between atoms: _488  and  _489
REMARK  206  A    between atoms: _489  and  _490
REMARK  207  A    between atoms: _490  and  _491
REMARK  208  A    between atoms: _491  and  _492
REMARK  209  A    between atoms: _496  and  _498
REMARK  210  A    between atoms: _498  and  _499
REMARK  211  A    between atoms: _498  and  _501
REMARK  212  A    between atoms: _501  and  _502
REMARK  213  A    between atoms: _508  and  _510
REMARK  214  A    between atoms: _510  and  _511
REMARK  215  A    between atoms: _510  and  _513
REMARK  216  A    between atoms: _513  and  _514
REMARK  217  A    between atoms: _517  and  _519
REMARK  218  A    between atoms: _519  and  _520
REMARK  219  A    between atoms: _519  and  _522
REMARK  220  A    between atoms: _522  and  _523
REMARK  221  A    between atoms: _526  and  _528
REMARK  222  A    between atoms: _528  and  _529
REMARK  223  A    between atoms: _528  and  _531
REMARK  224  A    between atoms: _534  and  _536
REMARK  225  A    between atoms: _536  and  _537
REMARK  226  A    between atoms: _536  and  _539
REMARK  227  A    between atoms: _539  and  _540
REMARK  228  A    between atoms: _545  and  _547
REMARK  229  A    between atoms: _547  and  _548
REMARK  230  A    between atoms: _547  and  _550
REMARK  231  A    between atoms: _553  and  _555
REMARK  232  A    between atoms: _555  and  _556
REMARK  233  A    between atoms: _555  and  _558
REMARK  234  A    between atoms: _558  and  _559
REMARK  235  A    between atoms: _562  and  _564
REMARK  236  A    between atoms: _564  and  _565
REMARK  237  A    between atoms: _564  and  _567
REMARK  238  A    between atoms: _567  and  _568
REMARK  239  A    between atoms: _571  and  _573
REMARK  240  A    between atoms: _573  and  _574
REMARK  241  A    between atoms: _573  and  _576
REMARK  242  A    between atoms: _576  and  _577
REMARK  243  A    between atoms: _580  and  _582
REMARK  244  A    between atoms: _582  and  _583
REMARK  245  A    between atoms: _582  and  _585
REMARK  246  A    between atoms: _585  and  _586
REMARK  247  A    between atoms: _586  and  _587
REMARK  248  A    between atoms: _589  and  _591
REMARK  249  A    between atoms: _591  and  _592
REMARK  250  A    between atoms: _591  and  _594
REMARK  251  A    between atoms: _594  and  _595
REMARK  252  A    between atoms: _597  and  _599
REMARK  253  A    between atoms: _599  and  _600
REMARK  254  A    between atoms: _599  and  _602
REMARK  255  A    between atoms: _602  and  _603
REMARK  256  A    between atoms: _606  and  _608
REMARK  257  A    between atoms: _608  and  _609
REMARK  258  A    between atoms: _608  and  _611
REMARK  259  A    between atoms: _611  and  _612
REMARK  260  A    between atoms: _617  and  _619
REMARK  261  A    between atoms: _619  and  _620
REMARK  262  A    between atoms: _619  and  _622
REMARK  263  A    between atoms: _622  and  _623
REMARK  264  A    between atoms: _626  and  _628
REMARK  265  A    between atoms: _628  and  _629
REMARK  266  A    between atoms: _628  and  _631
REMARK  267  A    between atoms: _631  and  _632
REMARK  268  A    between atoms: _632  and  _633
REMARK  269  A    between atoms: _638  and  _640
REMARK  270  A    between atoms: _640  and  _641
REMARK  271  A    between atoms: _640  and  _643
REMARK  272  A    between atoms: _643  and  _644
REMARK  273  A    between atoms: _647  and  _649
REMARK  274  A    between atoms: _649  and  _650
REMARK  275  A    between atoms: _649  and  _652
REMARK  276  A    between atoms: _652  and  _653
REMARK  277  A    between atoms: _658  and  _659
REMARK                            x       y       z     vdW  Elec       q    Type
REMARK                         _______ _______ _______ _____ _____    ______ ____
ROOT
ATOM      1  CA  ILE A   3      13.424  18.131   6.155  0.00  0.00    +0.149 C 
ENDROOT
BRANCH   1   4
ATOM      2  C   LEU A   2      13.734  15.735   5.768  0.00  0.00    +0.241 C 
ATOM      3  O   LEU A   2      14.017  15.508   6.951  0.00  0.00    -0.273 OA
ATOM      4  N   ILE A   3      13.465  16.951   5.295  0.00  0.00    -0.297 N 
ATOM      5  H   ILE A   3      13.278  17.064   4.278  0.00  0.00    +0.150 HD
BRANCH   2   6
ATOM      6  CA  LEU A   2      13.685  14.590   4.757  0.00  0.00    +0.149 C 
BRANCH   6   8
ATOM      7  C   VAL A   1      15.981  13.802   4.921  0.00  0.00    +0.238 C 
ATOM      8  N   LEU A   2      14.686  13.595   5.113  0.00  0.00    -0.297 N 
ATOM      9  H   LEU A   2      14.376  12.694   5.531  0.00  0.00    +0.150 HD
ATOM     10  O   VAL A   1      16.425  14.835   4.416  0.00  0.00    -0.274 OA
BRANCH   7  11
ATOM     11  CA  VAL A   1      16.914  12.669   5.353  0.00  0.00    +0.145 C 
BRANCH  11  12
ATOM     12  CB  VAL A   1      17.408  12.932   6.793  0.00  0.00    +0.025 C 
ATOM     13  CG2 VAL A   1      16.240  13.073   7.726  0.00  0.00    +0.002 C 
ATOM     14  CG1 VAL A   1      18.281  14.192   6.829  0.00  0.00    +0.002 C 
ENDBRANCH  11  12
BRANCH  11  15
ATOM     15  N   VAL A   1      18.053  12.529   4.464  0.00  0.00    -0.238 NA
ATOM     16  H   VAL A   1      18.525  13.387   4.112  0.00  0.00    +0.142 HD
ENDBRANCH  11  15
ENDBRANCH   7  11
ENDBRANCH   6   8
BRANCH   6  17
ATOM     17  CB  LEU A   2      12.275  13.974   4.804  0.00  0.00    +0.029 C 
BRANCH  17  18
ATOM     18  CG  LEU A   2      11.858  12.937   3.753  0.00  0.00    +0.002 C 
ATOM     19  CD2 LEU A   2      10.441  12.431   4.052  0.00  0.00    +0.000 C 
ATOM     20  CD1 LEU A   2      11.905  13.574   2.383  0.00  0.00    +0.000 C 
ENDBRANCH  17  18
ENDBRANCH   6  17
ENDBRANCH   2   6
ENDBRANCH   1   4
BRANCH   1  21
ATOM     21  C   ILE A   3      12.241  19.011   5.756  0.00  0.00    +0.241 C 
ATOM     22  N   SER A   4      11.913  19.981   6.599  0.00  0.00    -0.295 N 
ATOM     23  H   SER A   4      12.469  20.104   7.469  0.00  0.00    +0.150 HD
ATOM     24  O   ILE A   3      11.625  18.803   4.710  0.00  0.00    -0.273 OA
BRANCH  22  25
ATOM     25  CA  SER A   4      10.792  20.882   6.340  0.00  0.00    +0.178 C 
BRANCH  25  26
ATOM     26  C   SER A   4       9.512  20.125   6.028  0.00  0.00    +0.243 C 
ATOM     27  N   GLU A   5       9.035  19.335   6.981  0.00  0.00    -0.298 N 
ATOM     28  H   GLU A   5       9.556  19.244   7.876  0.00  0.00    +0.150 HD
ATOM     29  O   SER A   4       8.966  20.248   4.926  0.00  0.00    -0.273 OA
BRANCH  27  30
ATOM     30  CA  GLU A   5       7.789  18.589   6.797  0.00  0.00    +0.137 C 
BRANCH  30  31
ATOM     31  C   GLU A   5       7.767  17.736   5.524  0.00  0.00    +0.227 C 
ATOM     32  O   GLU A   5       6.688  17.433   5.003  0.00  0.00    -0.286 OA
ENDBRANCH  30  31
BRANCH  30  33
ATOM     33  CB  GLU A   5       6.605  19.559   6.724  0.00  0.00    +0.039 C 
BRANCH  33  34
ATOM     34  CG  GLU A   5       6.577  20.676   7.759  0.00  0.00    +0.116 C 
BRANCH  34  35
ATOM     35  CD  GLU A   5       5.517  21.731   7.432  0.00  0.00    +0.365 C 
ATOM     36  OE2 GLU A   5       4.412  21.677   8.021  0.00  0.00    -0.246 OA
ATOM     37  OE1 GLU A   5       5.778  22.598   6.572  0.00  0.00    -0.246 OA
ENDBRANCH  34  35
ENDBRANCH  33  34
ENDBRANCH  30  33
ENDBRANCH  27  30
ENDBRANCH  25  26
BRANCH  25  38
ATOM     38  CB  SER A   4      11.100  21.808   5.164  0.00  0.00    +0.166 C 
BRANCH  38  39
ATOM     39  OG  SER A   4      12.484  22.103   5.102  0.00  0.00    -0.380 OA
ATOM     40  H   SER A   4      12.658  22.703   4.334  0.00  0.00    +0.211 HD
ENDBRANCH  38  39
ENDBRANCH  25  38
ENDBRANCH  22  25
ENDBRANCH   1  21
BRANCH   1  41
ATOM     41  CB  ILE A   3      14.722  18.975   6.079  0.00  0.00    +0.027 C 
ATOM     42  CG2 ILE A   3      15.922  18.111   6.435  0.00  0.00    +0.002 C 
BRANCH  41  43
ATOM     43  CG1 ILE A   3      14.880  19.596   4.693  0.00  0.00    +0.002 C 
ATOM     44  CD1 ILE A   3      16.044  20.584   4.598  0.00  0.00    +0.000 C 
ENDBRANCH  41  43
ENDBRANCH   1  41
TORSDOF 20
REMARK  Name = ../refined-set-2016/2i4z/2i4z_pocket.pdb
REMARK  277 active torsions:
REMARK  status: ('A' for Active; 'I' for Inactive)
REMARK    1  A    between atoms: _1  and  _3
REMARK    2  A    between atoms: _3  and  _4
REMARK    3  A    between atoms: _3  and  _6
REMARK    4  A    between atoms: _6  and  _7
REMARK    5  A    between atoms: _12  and  _13
REMARK    6  A    between atoms: _15  and  _17
REMARK    7  A    between atoms: _17  and  _18
REMARK    8  A    between atoms: _17  and  _20
REMARK    9  A    between atoms: _20  and  _21
REMARK   10  A    between atoms: _23  and  _25
REMARK   11  A    between atoms: _25  and  _26
REMARK   12  A    between atoms: _25  and  _28
REMARK   13  A    between atoms: _28  and  _29
REMARK   14  A    between atoms: _36  and  _37
REMARK   15  A    between atoms: _42  and  _44
REMARK   16  A    between atoms: _44  and  _45
REMARK   17  A    between atoms: _44  and  _47
REMARK   18  A    between atoms: _47  and  _48
REMARK   19  A    between atoms: _51  and  _53
REMARK   20  A    between atoms: _53  and  _54
REMARK   21  A    between atoms: _53  and  _56
REMARK   22  A    between atoms: _56  and  _57
REMARK   23  A    between atoms: _63  and  _65
REMARK   24  A    between atoms: _65  and  _66
REMARK   25  A    between atoms: _65  and  _68
REMARK   26  A    between atoms: _68  and  _69
REMARK   27  A    between atoms: _72  and  _74
REMARK   28  A    between atoms: _74  and  _75
REMARK   29  A    between atoms: _74  and  _77
REMARK   30  A    between atoms: _77  and  _78
REMARK   31  A    between atoms: _81  and  _83
REMARK   32  A    between atoms: _83  and  _84
REMARK   33  A    between atoms: _83  and  _86
REMARK   34  A    between atoms: _86  and  _87
REMARK   35  A    between atoms: _93  and  _95
REMARK   36  A    between atoms: _95  and  _96
REMARK   37  A    between atoms: _95  and  _98
REMARK   38  A    between atoms: _98  and  _99
REMARK   39  A    between atoms: _99  and  _100
REMARK   40  A    between atoms: _105  and  _107
REMARK   41  A    between atoms: _107  and  _108
REMARK   42  A    between atoms: _110  and  _112
REMARK   43  A    between atoms: _112  and  _113
REMARK   44  A    between atoms: _112  and  _115
REMARK   45  A    between atoms: _117  and  _119
REMARK   46  A    between atoms: _119  and  _120
REMARK   47  A    between atoms: _119  and  _122
REMARK   48  A    between atoms: _122  and  _123
REMARK   49  A    between atoms: _123  and  _124
REMARK   50  A    between atoms: _129  and  _131
REMARK   51  A    between atoms: _131  and  _132
REMARK   52  A    between atoms: _131  and  _134
REMARK   53  A    between atoms: _134  and  _135
REMARK   54  A    between atoms: _141  and  _143
REMARK   55  A    between atoms: _143  and  _144
REMARK   56  A    between atoms: _143  and  _146
REMARK   57  A    between atoms: _146  and  _147
REMARK   58  A    between atoms: _147  and  _148
REMARK   59  A    between atoms: _148  and  _149
REMARK   60  A    between atoms: _158  and  _160
REMARK   61  A    between atoms: _160  and  _161
REMARK   62  A    between atoms: _160  and  _163
REMARK   63  A    between atoms: _163  and  _164
REMARK   64  A    between atoms: _166  and  _168
REMARK   65  A    between atoms: _168  and  _169
REMARK   66  A    between atoms: _168  and  _171
REMARK   67  A    between atoms: _174  and  _176
REMARK   68  A    between atoms: _176  and  _177
REMARK   69  A    between atoms: _176  and  _179
REMARK   70  A    between atoms: _179  and  _180
REMARK   71  A    between atoms: _180  and  _181
REMARK   72  A    between atoms: _184  and  _186
REMARK   73  A    between atoms: _186  and  _187
REMARK   74  A    between atoms: _190  and  _192
REMARK   75  A    between atoms: _192  and  _193
REMARK   76  A    between atoms: _192  and  _195
REMARK   77  A    between atoms: _198  and  _200
REMARK   78  A    between atoms: _200  and  _201
REMARK   79  A    between atoms: _200  and  _203
REMARK   80  A    between atoms: _203  and  _204
REMARK   81  A    between atoms: _204  and  _205
REMARK   82  A    between atoms: _210  and  _212
REMARK   83  A    between atoms: _212  and  _213
REMARK   84  A    between atoms: _212  and  _215
REMARK   85  A    between atoms: _215  and  _216
REMARK   86  A    between atoms: _216  and  _217
REMARK   87  A    between atoms: _220  and  _222
REMARK   88  A    between atoms: _222  and  _223
REMARK   89  A    between atoms: _222  and  _225
REMARK   90  A    between atoms: _225  and  _226
REMARK   91  A    between atoms: _229  and  _231
REMARK   92  A    between atoms: _231  and  _232
REMARK   93  A    between atoms: _231  and  _234
REMARK   94  A    between atoms: _234  and  _235
REMARK   95  A    between atoms: _238  and  _240
REMARK   96  A    between atoms: _240  and  _241
REMARK   97  A    between atoms: _240  and  _243
REMARK   98  A    between atoms: _246  and  _248
REMARK   99  A    between atoms: _248  and  _249
REMARK  100  A    between atoms: _248  and  _251
REMARK  101  A    between atoms: _251  and  _252
REMARK  102  A    between atoms: _257  and  _259
REMARK  103  A    between atoms: _259  and  _260
REMARK  104  A    between atoms: _259  and  _262
REMARK  105  A    between atoms: _262  and  _263
REMARK  106  A    between atoms: _263  and  _264
REMARK  107  A    between atoms: _267  and  _269
REMARK  108  A    between atoms: _269  and  _270
REMARK  109  A    between atoms: _269  and  _272
REMARK  110  A    between atoms: _272  and  _273
REMARK  111  A    between atoms: _276  and  _278
REMARK  112  A    between atoms: _278  and  _279
REMARK  113  A    between atoms: _278  and  _281
REMARK  114  A    between atoms: _281  and  _282
REMARK  115  A    between atoms: _285  and  _287
REMARK  116  A    between atoms: _287  and  _288
REMARK  117  A    between atoms: _287  and  _290
REMARK  118  A    between atoms: _290  and  _291
REMARK  119  A    between atoms: _296  and  _297
REMARK  120  A    between atoms: _299  and  _301
REMARK  121  A    between atoms: _301  and  _302
REMARK  122  A    between atoms: _301  and  _304
REMARK  123  A    between atoms: _304  and  _305
REMARK  124  A    between atoms: _308  and  _310
REMARK  125  A    between atoms: _310  and  _311
REMARK  126  A    between atoms: _310  and  _313
REMARK  127  A    between atoms: _313  and  _314
REMARK  128  A    between atoms: _314  and  _315
REMARK  129  A    between atoms: _317  and  _319
REMARK  130  A    between atoms: _319  and  _320
REMARK  131  A    between atoms: _319  and  _322
REMARK  132  A    between atoms: _322  and  _323
REMARK  133  A    between atoms: _326  and  _328
REMARK  134  A    between atoms: _328  and  _329
REMARK  135  A    between atoms: _332  and  _334
REMARK  136  A    between atoms: _334  and  _335
REMARK  137  A    between atoms: _334  and  _337
REMARK  138  A    between atoms: _337  and  _338
REMARK  139  A    between atoms: _340  and  _342
REMARK  140  A    between atoms: _342  and  _343
REMARK  141  A    between atoms: _342  and  _345
REMARK  142  A    between atoms: _345  and  _346
REMARK  143  A    between atoms: _349  and  _351
REMARK  144  A    between atoms: _351  and  _352
REMARK  145  A    between atoms: _351  and  _354
REMARK  146  A    between atoms: _354  and  _355
REMARK  147  A    between atoms: _355  and  _356
REMARK  148  A    between atoms: _358  and  _360
REMARK  149  A    between atoms: _360  and  _361
REMARK  150  A    between atoms: _360  and  _363
REMARK  151  A    between atoms: _366  and  _368
REMARK  152  A    between atoms: _368  and  _369
REMARK  153  A    between atoms: _368  and  _371
REMARK  154  A    between atoms: _371  and  _372
REMARK  155  A    between atoms: _375  and  _377
REMARK  156  A    between atoms: _377  and  _378
REMARK  157  A    between atoms: _377  and  _380
REMARK  158  A    between atoms: _380  and  _381
REMARK  159  A    between atoms: _384  and  _386
REMARK  160  A    between atoms: _386  and  _387
REMARK  161  A    between atoms: _386  and  _389
REMARK  162  A    between atoms: _389  and  _390
REMARK  163  A    between atoms: _392  and  _394
REMARK  164  A    between atoms: _394  and  _395
REMARK  165  A    between atoms: _394  and  _397
REMARK  166  A    between atoms: _397  and  _398
REMARK  167  A    between atoms: _398  and  _399
REMARK  168  A    between atoms: _402  and  _404
REMARK  169  A    between atoms: _404  and  _405
REMARK  170  A    between atoms: _404  and  _407
REMARK  171  A    between atoms: _407  and  _408
REMARK  172  A    between atoms: _414  and  _416
REMARK  173  A    between atoms: _416  and  _417
REMARK  174  A    between atoms: _416  and  _419
REMARK  175  A    between atoms: _419  and  _420
REMARK  176  A    between atoms: _420  and  _421
REMARK  177  A    between atoms: _423  and  _425
REMARK  178  A    between atoms: _425  and  _426
REMARK  179  A    between atoms: _425  and  _428
REMARK  180  A    between atoms: _428  and  _429
REMARK  181  A    between atoms: _432  and  _434
REMARK  182  A    between atoms: _434  and  _435
REMARK  183  A    between atoms: _434  and  _437
REMARK  184  A    between atoms: _437  and  _438
REMARK  185  A    between atoms: _441  and  _443
REMARK  186  A    between atoms: _443  and  _444
REMARK  187  A    between atoms: _443  and  _446
REMARK  188  A    between atoms: _446  and  _447
REMARK  189  A    between atoms: _450  and  _452
REMARK  190  A    between atoms: _452  and  _453
REMARK  191  A    between atoms: _452  and  _455
REMARK  192  A    between atoms: _455  and  _456
REMARK  193  A    between atoms: _462  and  _464
REMARK  194  A    between atoms: _464  and  _465
REMARK  195  A    between atoms: _464  and  _467
REMARK  196  A    between atoms: _467  and  _468
REMARK  197  A    between atoms: _474  and  _476
REMARK  198  A    between atoms: _476  and  _477
REMARK  199  A    between atoms: _476  and  _479
REMARK  200  A    between atoms: _479  and  _480
REMARK  201  A    between atoms: _480  and  _481
REMARK  202  A    between atoms: _483  and  _485
REMARK  203  A    between atoms: _485  and  _486
REMARK  204  A    between atoms: _485  and  _488
REMARK  205  A    between atoms: _488  and  _489
REMARK  206  A    between atoms: _489  and  _490
REMARK  207  A    between atoms: _490  and  _491
REMARK  208  A    between atoms: _491  and  _492
REMARK  209  A    between atoms: _496  and  _498
REMARK  210  A    between atoms: _498  and  _499
REMARK  211  A    between atoms: _498  and  _501
REMARK  212  A    between atoms: _501  and  _502
REMARK  213  A    between atoms: _508  and  _510
REMARK  214  A    between atoms: _510  and  _511
REMARK  215  A    between atoms: _510  and  _513
REMARK  216  A    between atoms: _513  and  _514
REMARK  217  A    between atoms: _517  and  _519
REMARK  218  A    between atoms: _519  and  _520
REMARK  219  A    between atoms: _519  and  _522
REMARK  220  A    between atoms: _522  and  _523
REMARK  221  A    between atoms: _526  and  _528
REMARK  222  A    between atoms: _528  and  _529
REMARK  223  A    between atoms: _528  and  _531
REMARK  224  A    between atoms: _534  and  _536
REMARK  225  A    between atoms: _536  and  _537
REMARK  226  A    between atoms: _536  and  _539
REMARK  227  A    between atoms: _539  and  _540
REMARK  228  A    between atoms: _545  and  _547
REMARK  229  A    between atoms: _547  and  _548
REMARK  230  A    between atoms: _547  and  _550
REMARK  231  A    between atoms: _553  and  _555
REMARK  232  A    between atoms: _555  and  _556
REMARK  233  A    between atoms: _555  and  _558
REMARK  234  A    between atoms: _558  and  _559
REMARK  235  A    between atoms: _562  and  _564
REMARK  236  A    between atoms: _564  and  _565
REMARK  237  A    between atoms: _564  and  _567
REMARK  238  A    between atoms: _567  and  _568
REMARK  239  A    between atoms: _571  and  _573
REMARK  240  A    between atoms: _573  and  _574
REMARK  241  A    between atoms: _573  and  _576
REMARK  242  A    between atoms: _576  and  _577
REMARK  243  A    between atoms: _580  and  _582
REMARK  244  A    between atoms: _582  and  _583
REMARK  245  A    between atoms: _582  and  _585
REMARK  246  A    between atoms: _585  and  _586
REMARK  247  A    between atoms: _586  and  _587
REMARK  248  A    between atoms: _589  and  _591
REMARK  249  A    between atoms: _591  and  _592
REMARK  250  A    between atoms: _591  and  _594
REMARK  251  A    between atoms: _594  and  _595
REMARK  252  A    between atoms: _597  and  _599
REMARK  253  A    between atoms: _599  and  _600
REMARK  254  A    between atoms: _599  and  _602
REMARK  255  A    between atoms: _602  and  _603
REMARK  256  A    between atoms: _606  and  _608
REMARK  257  A    between atoms: _608  and  _609
REMARK  258  A    between atoms: _608  and  _611
REMARK  259  A    between atoms: _611  and  _612
REMARK  260  A    between atoms: _617  and  _619
REMARK  261  A    between atoms: _619  and  _620
REMARK  262  A    between atoms: _619  and  _622
REMARK  263  A    between atoms: _622  and  _623
REMARK  264  A    between atoms: _626  and  _628
REMARK  265  A    between atoms: _628  and  _629
REMARK  266  A    between atoms: _628  and  _631
REMARK  267  A    between atoms: _631  and  _632
REMARK  268  A    between atoms: _632  and  _633
REMARK  269  A    between atoms: _638  and  _640
REMARK  270  A    between atoms: _640  and  _641
REMARK  271  A    between atoms: _640  and  _643
REMARK  272  A    between atoms: _643  and  _644
REMARK  273  A    between atoms: _647  and  _649
REMARK  274  A    between atoms: _649  and  _650
REMARK  275  A    between atoms: _649  and  _652
REMARK  276  A    between atoms: _652  and  _653
REMARK  277  A    between atoms: _658  and  _659
REMARK                            x       y       z     vdW  Elec       q    Type
REMARK                         _______ _______ _______ _____ _____    ______ ____
ROOT
ATOM      1  CA  MET A   2      19.142  16.882   2.666  0.00  0.00    +0.149 C 
ENDROOT
BRANCH   1   3
ATOM      2  C   PHE A   1      17.114  16.684   1.368  0.00  0.00    +0.239 C 
ATOM      3  N   MET A   2      17.746  16.511   2.517  0.00  0.00    -0.297 N 
ATOM      4  H   MET A   2      17.235  16.103   3.326  0.00  0.00    +0.150 HD
ATOM      5  O   PHE A   1      17.654  17.169   0.380  0.00  0.00    -0.274 OA
BRANCH   2   6
ATOM      6  CA  PHE A   1      15.657  16.260   1.321  0.00  0.00    +0.149 C 
BRANCH   6   7
ATOM      7  N   PHE A   1      14.910  17.475   1.032  0.00  0.00    -0.238 NA
ATOM      8  H   PHE A   1      15.317  18.171   0.375  0.00  0.00    +0.142 HD
ENDBRANCH   6   7
BRANCH   6   9
ATOM      9  CB  PHE A   1      15.447  15.230   0.201  0.00  0.00    +0.053 C 
BRANCH   9  10
ATOM     10  CG  PHE A   1      16.166  13.918   0.420  0.00  0.00    -0.020 A 
ATOM     11  CD2 PHE A   1      15.653  12.960   1.293  0.00  0.00    -0.004 A 
ATOM     12  CE2 PHE A   1      16.277  11.712   1.445  0.00  0.00    -0.000 A 
ATOM     13  CZ  PHE A   1      17.443  11.411   0.714  0.00  0.00    -0.000 A 
ATOM     14  CE1 PHE A   1      17.969  12.365  -0.155  0.00  0.00    -0.000 A 
ATOM     15  CD1 PHE A   1      17.326  13.617  -0.296  0.00  0.00    -0.004 A 
ENDBRANCH   9  10
ENDBRANCH   6   9
ENDBRANCH   2   6
ENDBRANCH   1   3
BRANCH   1  16
ATOM     16  C   MET A   2      20.018  15.626   2.632  0.00  0.00    +0.241 C 
ATOM     17  O   MET A   2      19.842  14.697   3.426  0.00  0.00    -0.273 OA
ATOM     18  N   THR A   3      20.961  15.625   1.699  0.00  0.00    -0.296 N 
ATOM     19  H   THR A   3      21.044  16.462   1.088  0.00  0.00    +0.150 HD
BRANCH  18  20
ATOM     20  CA  THR A   3      21.885  14.525   1.479  0.00  0.00    +0.164 C 
BRANCH  20  21
ATOM     21  C   THR A   3      22.801  14.138   2.661  0.00  0.00    +0.229 C 
ATOM     22  O   THR A   3      23.323  14.995   3.383  0.00  0.00    -0.286 OA
ENDBRANCH  20  21
BRANCH  20  23
ATOM     23  CB  THR A   3      22.739  14.849   0.240  0.00  0.00    +0.136 C 
ATOM     24  CG2 THR A   3      24.021  14.093   0.250  0.00  0.00    +0.034 C 
BRANCH  23  25
ATOM     25  OG1 THR A   3      21.991  14.536  -0.945  0.00  0.00    -0.382 OA
ATOM     26  HG1 THR A   3      22.538  14.743  -1.744  0.00  0.00    +0.210 HD
ENDBRANCH  23  25
ENDBRANCH  20  23
ENDBRANCH  18  20
ENDBRANCH   1  16
BRANCH   1  27
ATOM     27  CB  MET A   2      19.335  17.652   3.981  0.00  0.00    +0.041 C 
BRANCH  27  28
ATOM     28  CG  MET A   2      20.659  18.390   4.102  0.00  0.00    +0.060 C 
BRANCH  28  29
ATOM     29  SD  MET A   2      20.673  19.525   5.542  0.00  0.00    -0.139 S 
ATOM     30  CE  MET A   2      19.774  20.901   4.863  0.00  0.00    +0.069 C 
ENDBRANCH  28  29
ENDBRANCH  27  28
ENDBRANCH   1  27
TORSDOF 13
REMARK  Name = ../refined-set-2016/2i4z/2i4z_pocket.pdb
REMARK  277 active torsions:
REMARK  status: ('A' for Active; 'I' for Inactive)
REMARK    1  A    between atoms: _1  and  _3
REMARK    2  A    between atoms: _3  and  _4
REMARK    3  A    between atoms: _3  and  _6
REMARK    4  A    between atoms: _6  and  _7
REMARK    5  A    between atoms: _12  and  _13
REMARK    6  A    between atoms: _15  and  _17
REMARK    7  A    between atoms: _17  and  _18
REMARK    8  A    between atoms: _17  and  _20
REMARK    9  A    between atoms: _20  and  _21
REMARK   10  A    between atoms: _23  and  _25
REMARK   11  A    between atoms: _25  and  _26
REMARK   12  A    between atoms: _25  and  _28
REMARK   13  A    between atoms: _28  and  _29
REMARK   14  A    between atoms: _36  and  _37
REMARK   15  A    between atoms: _42  and  _44
REMARK   16  A    between atoms: _44  and  _45
REMARK   17  A    between atoms: _44  and  _47
REMARK   18  A    between atoms: _47  and  _48
REMARK   19  A    between atoms: _51  and  _53
REMARK   20  A    between atoms: _53  and  _54
REMARK   21  A    between atoms: _53  and  _56
REMARK   22  A    between atoms: _56  and  _57
REMARK   23  A    between atoms: _63  and  _65
REMARK   24  A    between atoms: _65  and  _66
REMARK   25  A    between atoms: _65  and  _68
REMARK   26  A    between atoms: _68  and  _69
REMARK   27  A    between atoms: _72  and  _74
REMARK   28  A    between atoms: _74  and  _75
REMARK   29  A    between atoms: _74  and  _77
REMARK   30  A    between atoms: _77  and  _78
REMARK   31  A    between atoms: _81  and  _83
REMARK   32  A    between atoms: _83  and  _84
REMARK   33  A    between atoms: _83  and  _86
REMARK   34  A    between atoms: _86  and  _87
REMARK   35  A    between atoms: _93  and  _95
REMARK   36  A    between atoms: _95  and  _96
REMARK   37  A    between atoms: _95  and  _98
REMARK   38  A    between atoms: _98  and  _99
REMARK   39  A    between atoms: _99  and  _100
REMARK   40  A    between atoms: _105  and  _107
REMARK   41  A    between atoms: _107  and  _108
REMARK   42  A    between atoms: _110  and  _112
REMARK   43  A    between atoms: _112  and  _113
REMARK   44  A    between atoms: _112  and  _115
REMARK   45  A    between atoms: _117  and  _119
REMARK   46  A    between atoms: _119  and  _120
REMARK   47  A    between atoms: _119  and  _122
REMARK   48  A    between atoms: _122  and  _123
REMARK   49  A    between atoms: _123  and  _124
REMARK   50  A    between atoms: _129  and  _131
REMARK   51  A    between atoms: _131  and  _132
REMARK   52  A    between atoms: _131  and  _134
REMARK   53  A    between atoms: _134  and  _135
REMARK   54  A    between atoms: _141  and  _143
REMARK   55  A    between atoms: _143  and  _144
REMARK   56  A    between atoms: _143  and  _146
REMARK   57  A    between atoms: _146  and  _147
REMARK   58  A    between atoms: _147  and  _148
REMARK   59  A    between atoms: _148  and  _149
REMARK   60  A    between atoms: _158  and  _160
REMARK   61  A    between atoms: _160  and  _161
REMARK   62  A    between atoms: _160  and  _163
REMARK   63  A    between atoms: _163  and  _164
REMARK   64  A    between atoms: _166  and  _168
REMARK   65  A    between atoms: _168  and  _169
REMARK   66  A    between atoms: _168  and  _171
REMARK   67  A    between atoms: _174  and  _176
REMARK   68  A    between atoms: _176  and  _177
REMARK   69  A    between atoms: _176  and  _179
REMARK   70  A    between atoms: _179  and  _180
REMARK   71  A    between atoms: _180  and  _181
REMARK   72  A    between atoms: _184  and  _186
REMARK   73  A    between atoms: _186  and  _187
REMARK   74  A    between atoms: _190  and  _192
REMARK   75  A    between atoms: _192  and  _193
REMARK   76  A    between atoms: _192  and  _195
REMARK   77  A    between atoms: _198  and  _200
REMARK   78  A    between atoms: _200  and  _201
REMARK   79  A    between atoms: _200  and  _203
REMARK   80  A    between atoms: _203  and  _204
REMARK   81  A    between atoms: _204  and  _205
REMARK   82  A    between atoms: _210  and  _212
REMARK   83  A    between atoms: _212  and  _213
REMARK   84  A    between atoms: _212  and  _215
REMARK   85  A    between atoms: _215  and  _216
REMARK   86  A    between atoms: _216  and  _217
REMARK   87  A    between atoms: _220  and  _222
REMARK   88  A    between atoms: _222  and  _223
REMARK   89  A    between atoms: _222  and  _225
REMARK   90  A    between atoms: _225  and  _226
REMARK   91  A    between atoms: _229  and  _231
REMARK   92  A    between atoms: _231  and  _232
REMARK   93  A    between atoms: _231  and  _234
REMARK   94  A    between atoms: _234  and  _235
REMARK   95  A    between atoms: _238  and  _240
REMARK   96  A    between atoms: _240  and  _241
REMARK   97  A    between atoms: _240  and  _243
REMARK   98  A    between atoms: _246  and  _248
REMARK   99  A    between atoms: _248  and  _249
REMARK  100  A    between atoms: _248  and  _251
REMARK  101  A    between atoms: _251  and  _252
REMARK  102  A    between atoms: _257  and  _259
REMARK  103  A    between atoms: _259  and  _260
REMARK  104  A    between atoms: _259  and  _262
REMARK  105  A    between atoms: _262  and  _263
REMARK  106  A    between atoms: _263  and  _264
REMARK  107  A    between atoms: _267  and  _269
REMARK  108  A    between atoms: _269  and  _270
REMARK  109  A    between atoms: _269  and  _272
REMARK  110  A    between atoms: _272  and  _273
REMARK  111  A    between atoms: _276  and  _278
REMARK  112  A    between atoms: _278  and  _279
REMARK  113  A    between atoms: _278  and  _281
REMARK  114  A    between atoms: _281  and  _282
REMARK  115  A    between atoms: _285  and  _287
REMARK  116  A    between atoms: _287  and  _288
REMARK  117  A    between atoms: _287  and  _290
REMARK  118  A    between atoms: _290  and  _291
REMARK  119  A    between atoms: _296  and  _297
REMARK  120  A    between atoms: _299  and  _301
REMARK  121  A    between atoms: _301  and  _302
REMARK  122  A    between atoms: _301  and  _304
REMARK  123  A    between atoms: _304  and  _305
REMARK  124  A    between atoms: _308  and  _310
REMARK  125  A    between atoms: _310  and  _311
REMARK  126  A    between atoms: _310  and  _313
REMARK  127  A    between atoms: _313  and  _314
REMARK  128  A    between atoms: _314  and  _315
REMARK  129  A    between atoms: _317  and  _319
REMARK  130  A    between atoms: _319  and  _320
REMARK  131  A    between atoms: _319  and  _322
REMARK  132  A    between atoms: _322  and  _323
REMARK  133  A    between atoms: _326  and  _328
REMARK  134  A    between atoms: _328  and  _329
REMARK  135  A    between atoms: _332  and  _334
REMARK  136  A    between atoms: _334  and  _335
REMARK  137  A    between atoms: _334  and  _337
REMARK  138  A    between atoms: _337  and  _338
REMARK  139  A    between atoms: _340  and  _342
REMARK  140  A    between atoms: _342  and  _343
REMARK  141  A    between atoms: _342  and  _345
REMARK  142  A    between atoms: _345  and  _346
REMARK  143  A    between atoms: _349  and  _351
REMARK  144  A    between atoms: _351  and  _352
REMARK  145  A    between atoms: _351  and  _354
REMARK  146  A    between atoms: _354  and  _355
REMARK  147  A    between atoms: _355  and  _356
REMARK  148  A    between atoms: _358  and  _360
REMARK  149  A    between atoms: _360  and  _361
REMARK  150  A    between atoms: _360  and  _363
REMARK  151  A    between atoms: _366  and  _368
REMARK  152  A    between atoms: _368  and  _369
REMARK  153  A    between atoms: _368  and  _371
REMARK  154  A    between atoms: _371  and  _372
REMARK  155  A    between atoms: _375  and  _377
REMARK  156  A    between atoms: _377  and  _378
REMARK  157  A    between atoms: _377  and  _380
REMARK  158  A    between atoms: _380  and  _381
REMARK  159  A    between atoms: _384  and  _386
REMARK  160  A    between atoms: _386  and  _387
REMARK  161  A    between atoms: _386  and  _389
REMARK  162  A    between atoms: _389  and  _390
REMARK  163  A    between atoms: _392  and  _394
REMARK  164  A    between atoms: _394  and  _395
REMARK  165  A    between atoms: _394  and  _397
REMARK  166  A    between atoms: _397  and  _398
REMARK  167  A    between atoms: _398  and  _399
REMARK  168  A    between atoms: _402  and  _404
REMARK  169  A    between atoms: _404  and  _405
REMARK  170  A    between atoms: _404  and  _407
REMARK  171  A    between atoms: _407  and  _408
REMARK  172  A    between atoms: _414  and  _416
REMARK  173  A    between atoms: _416  and  _417
REMARK  174  A    between atoms: _416  and  _419
REMARK  175  A    between atoms: _419  and  _420
REMARK  176  A    between atoms: _420  and  _421
REMARK  177  A    between atoms: _423  and  _425
REMARK  178  A    between atoms: _425  and  _426
REMARK  179  A    between atoms: _425  and  _428
REMARK  180  A    between atoms: _428  and  _429
REMARK  181  A    between atoms: _432  and  _434
REMARK  182  A    between atoms: _434  and  _435
REMARK  183  A    between atoms: _434  and  _437
REMARK  184  A    between atoms: _437  and  _438
REMARK  185  A    between atoms: _441  and  _443
REMARK  186  A    between atoms: _443  and  _444
REMARK  187  A    between atoms: _443  and  _446
REMARK  188  A    between atoms: _446  and  _447
REMARK  189  A    between atoms: _450  and  _452
REMARK  190  A    between atoms: _452  and  _453
REMARK  191  A    between atoms: _452  and  _455
REMARK  192  A    between atoms: _455  and  _456
REMARK  193  A    between atoms: _462  and  _464
REMARK  194  A    between atoms: _464  and  _465
REMARK  195  A    between atoms: _464  and  _467
REMARK  196  A    between atoms: _467  and  _468
REMARK  197  A    between atoms: _474  and  _476
REMARK  198  A    between atoms: _476  and  _477
REMARK  199  A    between atoms: _476  and  _479
REMARK  200  A    between atoms: _479  and  _480
REMARK  201  A    between atoms: _480  and  _481
REMARK  202  A    between atoms: _483  and  _485
REMARK  203  A    between atoms: _485  and  _486
REMARK  204  A    between atoms: _485  and  _488
REMARK  205  A    between atoms: _488  and  _489
REMARK  206  A    between atoms: _489  and  _490
REMARK  207  A    between atoms: _490  and  _491
REMARK  208  A    between atoms: _491  and  _492
REMARK  209  A    between atoms: _496  and  _498
REMARK  210  A    between atoms: _498  and  _499
REMARK  211  A    between atoms: _498  and  _501
REMARK  212  A    between atoms: _501  and  _502
REMARK  213  A    between atoms: _508  and  _510
REMARK  214  A    between atoms: _510  and  _511
REMARK  215  A    between atoms: _510  and  _513
REMARK  216  A    between atoms: _513  and  _514
REMARK  217  A    between atoms: _517  and  _519
REMARK  218  A    between atoms: _519  and  _520
REMARK  219  A    between atoms: _519  and  _522
REMARK  220  A    between atoms: _522  and  _523
REMARK  221  A    between atoms: _526  and  _528
REMARK  222  A    between atoms: _528  and  _529
REMARK  223  A    between atoms: _528  and  _531
REMARK  224  A    between atoms: _534  and  _536
REMARK  225  A    between atoms: _536  and  _537
REMARK  226  A    between atoms: _536  and  _539
REMARK  227  A    between atoms: _539  and  _540
REMARK  228  A    between atoms: _545  and  _547
REMARK  229  A    between atoms: _547  and  _548
REMARK  230  A    between atoms: _547  and  _550
REMARK  231  A    between atoms: _553  and  _555
REMARK  232  A    between atoms: _555  and  _556
REMARK  233  A    between atoms: _555  and  _558
REMARK  234  A    between atoms: _558  and  _559
REMARK  235  A    between atoms: _562  and  _564
REMARK  236  A    between atoms: _564  and  _565
REMARK  237  A    between atoms: _564  and  _567
REMARK  238  A    between atoms: _567  and  _568
REMARK  239  A    between atoms: _571  and  _573
REMARK  240  A    between atoms: _573  and  _574
REMARK  241  A    between atoms: _573  and  _576
REMARK  242  A    between atoms: _576  and  _577
REMARK  243  A    between atoms: _580  and  _582
REMARK  244  A    between atoms: _582  and  _583
REMARK  245  A    between atoms: _582  and  _585
REMARK  246  A    between atoms: _585  and  _586
REMARK  247  A    between atoms: _586  and  _587
REMARK  248  A    between atoms: _589  and  _591
REMARK  249  A    between atoms: _591  and  _592
REMARK  250  A    between atoms: _591  and  _594
REMARK  251  A    between atoms: _594  and  _595
REMARK  252  A    between atoms: _597  and  _599
REMARK  253  A    between atoms: _599  and  _600
REMARK  254  A    between atoms: _599  and  _602
REMARK  255  A    between atoms: _602  and  _603
REMARK  256  A    between atoms: _606  and  _608
REMARK  257  A    between atoms: _608  and  _609
REMARK  258  A    between atoms: _608  and  _611
REMARK  259  A    between atoms: _611  and  _612
REMARK  260  A    between atoms: _617  and  _619
REMARK  261  A    between atoms: _619  and  _620
REMARK  262  A    between atoms: _619  and  _622
REMARK  263  A    between atoms: _622  and  _623
REMARK  264  A    between atoms: _626  and  _628
REMARK  265  A    between atoms: _628  and  _629
REMARK  266  A    between atoms: _628  and  _631
REMARK  267  A    between atoms: _631  and  _632
REMARK  268  A    between atoms: _632  and  _633
REMARK  269  A    between atoms: _638  and  _640
REMARK  270  A    between atoms: _640  and  _641
REMARK  271  A    between atoms: _640  and  _643
REMARK  272  A    between atoms: _643  and  _644
REMARK  273  A    between atoms: _647  and  _649
REMARK  274  A    between atoms: _649  and  _650
REMARK  275  A    between atoms: _649  and  _652
REMARK  276  A    between atoms: _652  and  _653
REMARK  277  A    between atoms: _658  and  _659
REMARK                            x       y       z     vdW  Elec       q    Type
REMARK                         _______ _______ _______ _____ _____    ______ ____
ROOT
ATOM      1  CA  LEU A   1      25.779  16.672   6.052  0.00  0.00    +0.133 C 
ENDROOT
BRANCH   1   2
ATOM      2  N   LEU A   1      25.719  16.564   4.601  0.00  0.00    -0.239 NA
ATOM      3  H   LEU A   1      24.995  15.950   4.176  0.00  0.00    +0.142 HD
ENDBRANCH   1   2
BRANCH   1   4
ATOM      4  C   LEU A   1      27.134  16.291   6.625  0.00  0.00    +0.224 C 
ATOM      5  O   LEU A   1      27.660  16.979   7.503  0.00  0.00    -0.287 OA
ENDBRANCH   1   4
BRANCH   1   6
ATOM      6  CB  LEU A   1      24.703  15.793   6.688  0.00  0.00    +0.025 C 
BRANCH   6   7
ATOM      7  CG  LEU A   1      23.323  16.444   6.714  0.00  0.00    +0.002 C 
ATOM      8  CD2 LEU A   1      23.290  17.485   7.846  0.00  0.00    +0.000 C 
ATOM      9  CD1 LEU A   1      22.241  15.389   6.882  0.00  0.00    +0.000 C 
ENDBRANCH   6   7
ENDBRANCH   1   6
TORSDOF 4
REMARK  Name = ../refined-set-2016/2i4z/2i4z_pocket.pdb
REMARK  277 active torsions:
REMARK  status: ('A' for Active; 'I' for Inactive)
REMARK    1  A    between atoms: _1  and  _3
REMARK    2  A    between atoms: _3  and  _4
REMARK    3  A    between atoms: _3  and  _6
REMARK    4  A    between atoms: _6  and  _7
REMARK    5  A    between atoms: _12  and  _13
REMARK    6  A    between atoms: _15  and  _17
REMARK    7  A    between atoms: _17  and  _18
REMARK    8  A    between atoms: _17  and  _20
REMARK    9  A    between atoms: _20  and  _21
REMARK   10  A    between atoms: _23  and  _25
REMARK   11  A    between atoms: _25  and  _26
REMARK   12  A    between atoms: _25  and  _28
REMARK   13  A    between atoms: _28  and  _29
REMARK   14  A    between atoms: _36  and  _37
REMARK   15  A    between atoms: _42  and  _44
REMARK   16  A    between atoms: _44  and  _45
REMARK   17  A    between atoms: _44  and  _47
REMARK   18  A    between atoms: _47  and  _48
REMARK   19  A    between atoms: _51  and  _53
REMARK   20  A    between atoms: _53  and  _54
REMARK   21  A    between atoms: _53  and  _56
REMARK   22  A    between atoms: _56  and  _57
REMARK   23  A    between atoms: _63  and  _65
REMARK   24  A    between atoms: _65  and  _66
REMARK   25  A    between atoms: _65  and  _68
REMARK   26  A    between atoms: _68  and  _69
REMARK   27  A    between atoms: _72  and  _74
REMARK   28  A    between atoms: _74  and  _75
REMARK   29  A    between atoms: _74  and  _77
REMARK   30  A    between atoms: _77  and  _78
REMARK   31  A    between atoms: _81  and  _83
REMARK   32  A    between atoms: _83  and  _84
REMARK   33  A    between atoms: _83  and  _86
REMARK   34  A    between atoms: _86  and  _87
REMARK   35  A    between atoms: _93  and  _95
REMARK   36  A    between atoms: _95  and  _96
REMARK   37  A    between atoms: _95  and  _98
REMARK   38  A    between atoms: _98  and  _99
REMARK   39  A    between atoms: _99  and  _100
REMARK   40  A    between atoms: _105  and  _107
REMARK   41  A    between atoms: _107  and  _108
REMARK   42  A    between atoms: _110  and  _112
REMARK   43  A    between atoms: _112  and  _113
REMARK   44  A    between atoms: _112  and  _115
REMARK   45  A    between atoms: _117  and  _119
REMARK   46  A    between atoms: _119  and  _120
REMARK   47  A    between atoms: _119  and  _122
REMARK   48  A    between atoms: _122  and  _123
REMARK   49  A    between atoms: _123  and  _124
REMARK   50  A    between atoms: _129  and  _131
REMARK   51  A    between atoms: _131  and  _132
REMARK   52  A    between atoms: _131  and  _134
REMARK   53  A    between atoms: _134  and  _135
REMARK   54  A    between atoms: _141  and  _143
REMARK   55  A    between atoms: _143  and  _144
REMARK   56  A    between atoms: _143  and  _146
REMARK   57  A    between atoms: _146  and  _147
REMARK   58  A    between atoms: _147  and  _148
REMARK   59  A    between atoms: _148  and  _149
REMARK   60  A    between atoms: _158  and  _160
REMARK   61  A    between atoms: _160  and  _161
REMARK   62  A    between atoms: _160  and  _163
REMARK   63  A    between atoms: _163  and  _164
REMARK   64  A    between atoms: _166  and  _168
REMARK   65  A    between atoms: _168  and  _169
REMARK   66  A    between atoms: _168  and  _171
REMARK   67  A    between atoms: _174  and  _176
REMARK   68  A    between atoms: _176  and  _177
REMARK   69  A    between atoms: _176  and  _179
REMARK   70  A    between atoms: _179  and  _180
REMARK   71  A    between atoms: _180  and  _181
REMARK   72  A    between atoms: _184  and  _186
REMARK   73  A    between atoms: _186  and  _187
REMARK   74  A    between atoms: _190  and  _192
REMARK   75  A    between atoms: _192  and  _193
REMARK   76  A    between atoms: _192  and  _195
REMARK   77  A    between atoms: _198  and  _200
REMARK   78  A    between atoms: _200  and  _201
REMARK   79  A    between atoms: _200  and  _203
REMARK   80  A    between atoms: _203  and  _204
REMARK   81  A    between atoms: _204  and  _205
REMARK   82  A    between atoms: _210  and  _212
REMARK   83  A    between atoms: _212  and  _213
REMARK   84  A    between atoms: _212  and  _215
REMARK   85  A    between atoms: _215  and  _216
REMARK   86  A    between atoms: _216  and  _217
REMARK   87  A    between atoms: _220  and  _222
REMARK   88  A    between atoms: _222  and  _223
REMARK   89  A    between atoms: _222  and  _225
REMARK   90  A    between atoms: _225  and  _226
REMARK   91  A    between atoms: _229  and  _231
REMARK   92  A    between atoms: _231  and  _232
REMARK   93  A    between atoms: _231  and  _234
REMARK   94  A    between atoms: _234  and  _235
REMARK   95  A    between atoms: _238  and  _240
REMARK   96  A    between atoms: _240  and  _241
REMARK   97  A    between atoms: _240  and  _243
REMARK   98  A    between atoms: _246  and  _248
REMARK   99  A    between atoms: _248  and  _249
REMARK  100  A    between atoms: _248  and  _251
REMARK  101  A    between atoms: _251  and  _252
REMARK  102  A    between atoms: _257  and  _259
REMARK  103  A    between atoms: _259  and  _260
REMARK  104  A    between atoms: _259  and  _262
REMARK  105  A    between atoms: _262  and  _263
REMARK  106  A    between atoms: _263  and  _264
REMARK  107  A    between atoms: _267  and  _269
REMARK  108  A    between atoms: _269  and  _270
REMARK  109  A    between atoms: _269  and  _272
REMARK  110  A    between atoms: _272  and  _273
REMARK  111  A    between atoms: _276  and  _278
REMARK  112  A    between atoms: _278  and  _279
REMARK  113  A    between atoms: _278  and  _281
REMARK  114  A    between atoms: _281  and  _282
REMARK  115  A    between atoms: _285  and  _287
REMARK  116  A    between atoms: _287  and  _288
REMARK  117  A    between atoms: _287  and  _290
REMARK  118  A    between atoms: _290  and  _291
REMARK  119  A    between atoms: _296  and  _297
REMARK  120  A    between atoms: _299  and  _301
REMARK  121  A    between atoms: _301  and  _302
REMARK  122  A    between atoms: _301  and  _304
REMARK  123  A    between atoms: _304  and  _305
REMARK  124  A    between atoms: _308  and  _310
REMARK  125  A    between atoms: _310  and  _311
REMARK  126  A    between atoms: _310  and  _313
REMARK  127  A    between atoms: _313  and  _314
REMARK  128  A    between atoms: _314  and  _315
REMARK  129  A    between atoms: _317  and  _319
REMARK  130  A    between atoms: _319  and  _320
REMARK  131  A    between atoms: _319  and  _322
REMARK  132  A    between atoms: _322  and  _323
REMARK  133  A    between atoms: _326  and  _328
REMARK  134  A    between atoms: _328  and  _329
REMARK  135  A    between atoms: _332  and  _334
REMARK  136  A    between atoms: _334  and  _335
REMARK  137  A    between atoms: _334  and  _337
REMARK  138  A    between atoms: _337  and  _338
REMARK  139  A    between atoms: _340  and  _342
REMARK  140  A    between atoms: _342  and  _343
REMARK  141  A    between atoms: _342  and  _345
REMARK  142  A    between atoms: _345  and  _346
REMARK  143  A    between atoms: _349  and  _351
REMARK  144  A    between atoms: _351  and  _352
REMARK  145  A    between atoms: _351  and  _354
REMARK  146  A    between atoms: _354  and  _355
REMARK  147  A    between atoms: _355  and  _356
REMARK  148  A    between atoms: _358  and  _360
REMARK  149  A    between atoms: _360  and  _361
REMARK  150  A    between atoms: _360  and  _363
REMARK  151  A    between atoms: _366  and  _368
REMARK  152  A    between atoms: _368  and  _369
REMARK  153  A    between atoms: _368  and  _371
REMARK  154  A    between atoms: _371  and  _372
REMARK  155  A    between atoms: _375  and  _377
REMARK  156  A    between atoms: _377  and  _378
REMARK  157  A    between atoms: _377  and  _380
REMARK  158  A    between atoms: _380  and  _381
REMARK  159  A    between atoms: _384  and  _386
REMARK  160  A    between atoms: _386  and  _387
REMARK  161  A    between atoms: _386  and  _389
REMARK  162  A    between atoms: _389  and  _390
REMARK  163  A    between atoms: _392  and  _394
REMARK  164  A    between atoms: _394  and  _395
REMARK  165  A    between atoms: _394  and  _397
REMARK  166  A    between atoms: _397  and  _398
REMARK  167  A    between atoms: _398  and  _399
REMARK  168  A    between atoms: _402  and  _404
REMARK  169  A    between atoms: _404  and  _405
REMARK  170  A    between atoms: _404  and  _407
REMARK  171  A    between atoms: _407  and  _408
REMARK  172  A    between atoms: _414  and  _416
REMARK  173  A    between atoms: _416  and  _417
REMARK  174  A    between atoms: _416  and  _419
REMARK  175  A    between atoms: _419  and  _420
REMARK  176  A    between atoms: _420  and  _421
REMARK  177  A    between atoms: _423  and  _425
REMARK  178  A    between atoms: _425  and  _426
REMARK  179  A    between atoms: _425  and  _428
REMARK  180  A    between atoms: _428  and  _429
REMARK  181  A    between atoms: _432  and  _434
REMARK  182  A    between atoms: _434  and  _435
REMARK  183  A    between atoms: _434  and  _437
REMARK  184  A    between atoms: _437  and  _438
REMARK  185  A    between atoms: _441  and  _443
REMARK  186  A    between atoms: _443  and  _444
REMARK  187  A    between atoms: _443  and  _446
REMARK  188  A    between atoms: _446  and  _447
REMARK  189  A    between atoms: _450  and  _452
REMARK  190  A    between atoms: _452  and  _453
REMARK  191  A    between atoms: _452  and  _455
REMARK  192  A    between atoms: _455  and  _456
REMARK  193  A    between atoms: _462  and  _464
REMARK  194  A    between atoms: _464  and  _465
REMARK  195  A    between atoms: _464  and  _467
REMARK  196  A    between atoms: _467  and  _468
REMARK  197  A    between atoms: _474  and  _476
REMARK  198  A    between atoms: _476  and  _477
REMARK  199  A    between atoms: _476  and  _479
REMARK  200  A    between atoms: _479  and  _480
REMARK  201  A    between atoms: _480  and  _481
REMARK  202  A    between atoms: _483  and  _485
REMARK  203  A    between atoms: _485  and  _486
REMARK  204  A    between atoms: _485  and  _488
REMARK  205  A    between atoms: _488  and  _489
REMARK  206  A    between atoms: _489  and  _490
REMARK  207  A    between atoms: _490  and  _491
REMARK  208  A    between atoms: _491  and  _492
REMARK  209  A    between atoms: _496  and  _498
REMARK  210  A    between atoms: _498  and  _499
REMARK  211  A    between atoms: _498  and  _501
REMARK  212  A    between atoms: _501  and  _502
REMARK  213  A    between atoms: _508  and  _510
REMARK  214  A    between atoms: _510  and  _511
REMARK  215  A    between atoms: _510  and  _513
REMARK  216  A    between atoms: _513  and  _514
REMARK  217  A    between atoms: _517  and  _519
REMARK  218  A    between atoms: _519  and  _520
REMARK  219  A    between atoms: _519  and  _522
REMARK  220  A    between atoms: _522  and  _523
REMARK  221  A    between atoms: _526  and  _528
REMARK  222  A    between atoms: _528  and  _529
REMARK  223  A    between atoms: _528  and  _531
REMARK  224  A    between atoms: _534  and  _536
REMARK  225  A    between atoms: _536  and  _537
REMARK  226  A    between atoms: _536  and  _539
REMARK  227  A    between atoms: _539  and  _540
REMARK  228  A    between atoms: _545  and  _547
REMARK  229  A    between atoms: _547  and  _548
REMARK  230  A    between atoms: _547  and  _550
REMARK  231  A    between atoms: _553  and  _555
REMARK  232  A    between atoms: _555  and  _556
REMARK  233  A    between atoms: _555  and  _558
REMARK  234  A    between atoms: _558  and  _559
REMARK  235  A    between atoms: _562  and  _564
REMARK  236  A    between atoms: _564  and  _565
REMARK  237  A    between atoms: _564  and  _567
REMARK  238  A    between atoms: _567  and  _568
REMARK  239  A    between atoms: _571  and  _573
REMARK  240  A    between atoms: _573  and  _574
REMARK  241  A    between atoms: _573  and  _576
REMARK  242  A    between atoms: _576  and  _577
REMARK  243  A    between atoms: _580  and  _582
REMARK  244  A    between atoms: _582  and  _583
REMARK  245  A    between atoms: _582  and  _585
REMARK  246  A    between atoms: _585  and  _586
REMARK  247  A    between atoms: _586  and  _587
REMARK  248  A    between atoms: _589  and  _591
REMARK  249  A    between atoms: _591  and  _592
REMARK  250  A    between atoms: _591  and  _594
REMARK  251  A    between atoms: _594  and  _595
REMARK  252  A    between atoms: _597  and  _599
REMARK  253  A    between atoms: _599  and  _600
REMARK  254  A    between atoms: _599  and  _602
REMARK  255  A    between atoms: _602  and  _603
REMARK  256  A    between atoms: _606  and  _608
REMARK  257  A    between atoms: _608  and  _609
REMARK  258  A    between atoms: _608  and  _611
REMARK  259  A    between atoms: _611  and  _612
REMARK  260  A    between atoms: _617  and  _619
REMARK  261  A    between atoms: _619  and  _620
REMARK  262  A    between atoms: _619  and  _622
REMARK  263  A    between atoms: _622  and  _623
REMARK  264  A    between atoms: _626  and  _628
REMARK  265  A    between atoms: _628  and  _629
REMARK  266  A    between atoms: _628  and  _631
REMARK  267  A    between atoms: _631  and  _632
REMARK  268  A    between atoms: _632  and  _633
REMARK  269  A    between atoms: _638  and  _640
REMARK  270  A    between atoms: _640  and  _641
REMARK  271  A    between atoms: _640  and  _643
REMARK  272  A    between atoms: _643  and  _644
REMARK  273  A    between atoms: _647  and  _649
REMARK  274  A    between atoms: _649  and  _650
REMARK  275  A    between atoms: _649  and  _652
REMARK  276  A    between atoms: _652  and  _653
REMARK  277  A    between atoms: _658  and  _659
REMARK                            x       y       z     vdW  Elec       q    Type
REMARK                         _______ _______ _______ _____ _____    ______ ____
ROOT
ATOM      1  CA  LEU A   1      30.106  20.192   7.300  0.00  0.00    +0.133 C 
ENDROOT
BRANCH   1   2
ATOM      2  N   LEU A   1      30.163  18.931   6.571  0.00  0.00    -0.239 NA
ATOM      3  H   LEU A   1      29.585  18.125   6.886  0.00  0.00    +0.142 HD
ENDBRANCH   1   2
BRANCH   1   4
ATOM      4  C   LEU A   1      31.341  20.361   8.189  0.00  0.00    +0.224 C 
ATOM      5  O   LEU A   1      32.068  19.396   8.436  0.00  0.00    -0.287 OA
ENDBRANCH   1   4
BRANCH   1   6
ATOM      6  CB  LEU A   1      28.831  20.247   8.143  0.00  0.00    +0.025 C 
BRANCH   6   7
ATOM      7  CG  LEU A   1      27.558  20.195   7.295  0.00  0.00    +0.002 C 
ATOM      8  CD2 LEU A   1      26.322  20.142   8.184  0.00  0.00    +0.000 C 
ATOM      9  CD1 LEU A   1      27.523  21.410   6.383  0.00  0.00    +0.000 C 
ENDBRANCH   6   7
ENDBRANCH   1   6
TORSDOF 4
REMARK  Name = ../refined-set-2016/2i4z/2i4z_pocket.pdb
REMARK  277 active torsions:
REMARK  status: ('A' for Active; 'I' for Inactive)
REMARK    1  A    between atoms: _1  and  _3
REMARK    2  A    between atoms: _3  and  _4
REMARK    3  A    between atoms: _3  and  _6
REMARK    4  A    between atoms: _6  and  _7
REMARK    5  A    between atoms: _12  and  _13
REMARK    6  A    between atoms: _15  and  _17
REMARK    7  A    between atoms: _17  and  _18
REMARK    8  A    between atoms: _17  and  _20
REMARK    9  A    between atoms: _20  and  _21
REMARK   10  A    between atoms: _23  and  _25
REMARK   11  A    between atoms: _25  and  _26
REMARK   12  A    between atoms: _25  and  _28
REMARK   13  A    between atoms: _28  and  _29
REMARK   14  A    between atoms: _36  and  _37
REMARK   15  A    between atoms: _42  and  _44
REMARK   16  A    between atoms: _44  and  _45
REMARK   17  A    between atoms: _44  and  _47
REMARK   18  A    between atoms: _47  and  _48
REMARK   19  A    between atoms: _51  and  _53
REMARK   20  A    between atoms: _53  and  _54
REMARK   21  A    between atoms: _53  and  _56
REMARK   22  A    between atoms: _56  and  _57
REMARK   23  A    between atoms: _63  and  _65
REMARK   24  A    between atoms: _65  and  _66
REMARK   25  A    between atoms: _65  and  _68
REMARK   26  A    between atoms: _68  and  _69
REMARK   27  A    between atoms: _72  and  _74
REMARK   28  A    between atoms: _74  and  _75
REMARK   29  A    between atoms: _74  and  _77
REMARK   30  A    between atoms: _77  and  _78
REMARK   31  A    between atoms: _81  and  _83
REMARK   32  A    between atoms: _83  and  _84
REMARK   33  A    between atoms: _83  and  _86
REMARK   34  A    between atoms: _86  and  _87
REMARK   35  A    between atoms: _93  and  _95
REMARK   36  A    between atoms: _95  and  _96
REMARK   37  A    between atoms: _95  and  _98
REMARK   38  A    between atoms: _98  and  _99
REMARK   39  A    between atoms: _99  and  _100
REMARK   40  A    between atoms: _105  and  _107
REMARK   41  A    between atoms: _107  and  _108
REMARK   42  A    between atoms: _110  and  _112
REMARK   43  A    between atoms: _112  and  _113
REMARK   44  A    between atoms: _112  and  _115
REMARK   45  A    between atoms: _117  and  _119
REMARK   46  A    between atoms: _119  and  _120
REMARK   47  A    between atoms: _119  and  _122
REMARK   48  A    between atoms: _122  and  _123
REMARK   49  A    between atoms: _123  and  _124
REMARK   50  A    between atoms: _129  and  _131
REMARK   51  A    between atoms: _131  and  _132
REMARK   52  A    between atoms: _131  and  _134
REMARK   53  A    between atoms: _134  and  _135
REMARK   54  A    between atoms: _141  and  _143
REMARK   55  A    between atoms: _143  and  _144
REMARK   56  A    between atoms: _143  and  _146
REMARK   57  A    between atoms: _146  and  _147
REMARK   58  A    between atoms: _147  and  _148
REMARK   59  A    between atoms: _148  and  _149
REMARK   60  A    between atoms: _158  and  _160
REMARK   61  A    between atoms: _160  and  _161
REMARK   62  A    between atoms: _160  and  _163
REMARK   63  A    between atoms: _163  and  _164
REMARK   64  A    between atoms: _166  and  _168
REMARK   65  A    between atoms: _168  and  _169
REMARK   66  A    between atoms: _168  and  _171
REMARK   67  A    between atoms: _174  and  _176
REMARK   68  A    between atoms: _176  and  _177
REMARK   69  A    between atoms: _176  and  _179
REMARK   70  A    between atoms: _179  and  _180
REMARK   71  A    between atoms: _180  and  _181
REMARK   72  A    between atoms: _184  and  _186
REMARK   73  A    between atoms: _186  and  _187
REMARK   74  A    between atoms: _190  and  _192
REMARK   75  A    between atoms: _192  and  _193
REMARK   76  A    between atoms: _192  and  _195
REMARK   77  A    between atoms: _198  and  _200
REMARK   78  A    between atoms: _200  and  _201
REMARK   79  A    between atoms: _200  and  _203
REMARK   80  A    between atoms: _203  and  _204
REMARK   81  A    between atoms: _204  and  _205
REMARK   82  A    between atoms: _210  and  _212
REMARK   83  A    between atoms: _212  and  _213
REMARK   84  A    between atoms: _212  and  _215
REMARK   85  A    between atoms: _215  and  _216
REMARK   86  A    between atoms: _216  and  _217
REMARK   87  A    between atoms: _220  and  _222
REMARK   88  A    between atoms: _222  and  _223
REMARK   89  A    between atoms: _222  and  _225
REMARK   90  A    between atoms: _225  and  _226
REMARK   91  A    between atoms: _229  and  _231
REMARK   92  A    between atoms: _231  and  _232
REMARK   93  A    between atoms: _231  and  _234
REMARK   94  A    between atoms: _234  and  _235
REMARK   95  A    between atoms: _238  and  _240
REMARK   96  A    between atoms: _240  and  _241
REMARK   97  A    between atoms: _240  and  _243
REMARK   98  A    between atoms: _246  and  _248
REMARK   99  A    between atoms: _248  and  _249
REMARK  100  A    between atoms: _248  and  _251
REMARK  101  A    between atoms: _251  and  _252
REMARK  102  A    between atoms: _257  and  _259
REMARK  103  A    between atoms: _259  and  _260
REMARK  104  A    between atoms: _259  and  _262
REMARK  105  A    between atoms: _262  and  _263
REMARK  106  A    between atoms: _263  and  _264
REMARK  107  A    between atoms: _267  and  _269
REMARK  108  A    between atoms: _269  and  _270
REMARK  109  A    between atoms: _269  and  _272
REMARK  110  A    between atoms: _272  and  _273
REMARK  111  A    between atoms: _276  and  _278
REMARK  112  A    between atoms: _278  and  _279
REMARK  113  A    between atoms: _278  and  _281
REMARK  114  A    between atoms: _281  and  _282
REMARK  115  A    between atoms: _285  and  _287
REMARK  116  A    between atoms: _287  and  _288
REMARK  117  A    between atoms: _287  and  _290
REMARK  118  A    between atoms: _290  and  _291
REMARK  119  A    between atoms: _296  and  _297
REMARK  120  A    between atoms: _299  and  _301
REMARK  121  A    between atoms: _301  and  _302
REMARK  122  A    between atoms: _301  and  _304
REMARK  123  A    between atoms: _304  and  _305
REMARK  124  A    between atoms: _308  and  _310
REMARK  125  A    between atoms: _310  and  _311
REMARK  126  A    between atoms: _310  and  _313
REMARK  127  A    between atoms: _313  and  _314
REMARK  128  A    between atoms: _314  and  _315
REMARK  129  A    between atoms: _317  and  _319
REMARK  130  A    between atoms: _319  and  _320
REMARK  131  A    between atoms: _319  and  _322
REMARK  132  A    between atoms: _322  and  _323
REMARK  133  A    between atoms: _326  and  _328
REMARK  134  A    between atoms: _328  and  _329
REMARK  135  A    between atoms: _332  and  _334
REMARK  136  A    between atoms: _334  and  _335
REMARK  137  A    between atoms: _334  and  _337
REMARK  138  A    between atoms: _337  and  _338
REMARK  139  A    between atoms: _340  and  _342
REMARK  140  A    between atoms: _342  and  _343
REMARK  141  A    between atoms: _342  and  _345
REMARK  142  A    between atoms: _345  and  _346
REMARK  143  A    between atoms: _349  and  _351
REMARK  144  A    between atoms: _351  and  _352
REMARK  145  A    between atoms: _351  and  _354
REMARK  146  A    between atoms: _354  and  _355
REMARK  147  A    between atoms: _355  and  _356
REMARK  148  A    between atoms: _358  and  _360
REMARK  149  A    between atoms: _360  and  _361
REMARK  150  A    between atoms: _360  and  _363
REMARK  151  A    between atoms: _366  and  _368
REMARK  152  A    between atoms: _368  and  _369
REMARK  153  A    between atoms: _368  and  _371
REMARK  154  A    between atoms: _371  and  _372
REMARK  155  A    between atoms: _375  and  _377
REMARK  156  A    between atoms: _377  and  _378
REMARK  157  A    between atoms: _377  and  _380
REMARK  158  A    between atoms: _380  and  _381
REMARK  159  A    between atoms: _384  and  _386
REMARK  160  A    between atoms: _386  and  _387
REMARK  161  A    between atoms: _386  and  _389
REMARK  162  A    between atoms: _389  and  _390
REMARK  163  A    between atoms: _392  and  _394
REMARK  164  A    between atoms: _394  and  _395
REMARK  165  A    between atoms: _394  and  _397
REMARK  166  A    between atoms: _397  and  _398
REMARK  167  A    between atoms: _398  and  _399
REMARK  168  A    between atoms: _402  and  _404
REMARK  169  A    between atoms: _404  and  _405
REMARK  170  A    between atoms: _404  and  _407
REMARK  171  A    between atoms: _407  and  _408
REMARK  172  A    between atoms: _414  and  _416
REMARK  173  A    between atoms: _416  and  _417
REMARK  174  A    between atoms: _416  and  _419
REMARK  175  A    between atoms: _419  and  _420
REMARK  176  A    between atoms: _420  and  _421
REMARK  177  A    between atoms: _423  and  _425
REMARK  178  A    between atoms: _425  and  _426
REMARK  179  A    between atoms: _425  and  _428
REMARK  180  A    between atoms: _428  and  _429
REMARK  181  A    between atoms: _432  and  _434
REMARK  182  A    between atoms: _434  and  _435
REMARK  183  A    between atoms: _434  and  _437
REMARK  184  A    between atoms: _437  and  _438
REMARK  185  A    between atoms: _441  and  _443
REMARK  186  A    between atoms: _443  and  _444
REMARK  187  A    between atoms: _443  and  _446
REMARK  188  A    between atoms: _446  and  _447
REMARK  189  A    between atoms: _450  and  _452
REMARK  190  A    between atoms: _452  and  _453
REMARK  191  A    between atoms: _452  and  _455
REMARK  192  A    between atoms: _455  and  _456
REMARK  193  A    between atoms: _462  and  _464
REMARK  194  A    between atoms: _464  and  _465
REMARK  195  A    between atoms: _464  and  _467
REMARK  196  A    between atoms: _467  and  _468
REMARK  197  A    between atoms: _474  and  _476
REMARK  198  A    between atoms: _476  and  _477
REMARK  199  A    between atoms: _476  and  _479
REMARK  200  A    between atoms: _479  and  _480
REMARK  201  A    between atoms: _480  and  _481
REMARK  202  A    between atoms: _483  and  _485
REMARK  203  A    between atoms: _485  and  _486
REMARK  204  A    between atoms: _485  and  _488
REMARK  205  A    between atoms: _488  and  _489
REMARK  206  A    between atoms: _489  and  _490
REMARK  207  A    between atoms: _490  and  _491
REMARK  208  A    between atoms: _491  and  _492
REMARK  209  A    between atoms: _496  and  _498
REMARK  210  A    between atoms: _498  and  _499
REMARK  211  A    between atoms: _498  and  _501
REMARK  212  A    between atoms: _501  and  _502
REMARK  213  A    between atoms: _508  and  _510
REMARK  214  A    between atoms: _510  and  _511
REMARK  215  A    between atoms: _510  and  _513
REMARK  216  A    between atoms: _513  and  _514
REMARK  217  A    between atoms: _517  and  _519
REMARK  218  A    between atoms: _519  and  _520
REMARK  219  A    between atoms: _519  and  _522
REMARK  220  A    between atoms: _522  and  _523
REMARK  221  A    between atoms: _526  and  _528
REMARK  222  A    between atoms: _528  and  _529
REMARK  223  A    between atoms: _528  and  _531
REMARK  224  A    between atoms: _534  and  _536
REMARK  225  A    between atoms: _536  and  _537
REMARK  226  A    between atoms: _536  and  _539
REMARK  227  A    between atoms: _539  and  _540
REMARK  228  A    between atoms: _545  and  _547
REMARK  229  A    between atoms: _547  and  _548
REMARK  230  A    between atoms: _547  and  _550
REMARK  231  A    between atoms: _553  and  _555
REMARK  232  A    between atoms: _555  and  _556
REMARK  233  A    between atoms: _555  and  _558
REMARK  234  A    between atoms: _558  and  _559
REMARK  235  A    between atoms: _562  and  _564
REMARK  236  A    between atoms: _564  and  _565
REMARK  237  A    between atoms: _564  and  _567
REMARK  238  A    between atoms: _567  and  _568
REMARK  239  A    between atoms: _571  and  _573
REMARK  240  A    between atoms: _573  and  _574
REMARK  241  A    between atoms: _573  and  _576
REMARK  242  A    between atoms: _576  and  _577
REMARK  243  A    between atoms: _580  and  _582
REMARK  244  A    between atoms: _582  and  _583
REMARK  245  A    between atoms: _582  and  _585
REMARK  246  A    between atoms: _585  and  _586
REMARK  247  A    between atoms: _586  and  _587
REMARK  248  A    between atoms: _589  and  _591
REMARK  249  A    between atoms: _591  and  _592
REMARK  250  A    between atoms: _591  and  _594
REMARK  251  A    between atoms: _594  and  _595
REMARK  252  A    between atoms: _597  and  _599
REMARK  253  A    between atoms: _599  and  _600
REMARK  254  A    between atoms: _599  and  _602
REMARK  255  A    between atoms: _602  and  _603
REMARK  256  A    between atoms: _606  and  _608
REMARK  257  A    between atoms: _608  and  _609
REMARK  258  A    between atoms: _608  and  _611
REMARK  259  A    between atoms: _611  and  _612
REMARK  260  A    between atoms: _617  and  _619
REMARK  261  A    between atoms: _619  and  _620
REMARK  262  A    between atoms: _619  and  _622
REMARK  263  A    between atoms: _622  and  _623
REMARK  264  A    between atoms: _626  and  _628
REMARK  265  A    between atoms: _628  and  _629
REMARK  266  A    between atoms: _628  and  _631
REMARK  267  A    between atoms: _631  and  _632
REMARK  268  A    between atoms: _632  and  _633
REMARK  269  A    between atoms: _638  and  _640
REMARK  270  A    between atoms: _640  and  _641
REMARK  271  A    between atoms: _640  and  _643
REMARK  272  A    between atoms: _643  and  _644
REMARK  273  A    between atoms: _647  and  _649
REMARK  274  A    between atoms: _649  and  _650
REMARK  275  A    between atoms: _649  and  _652
REMARK  276  A    between atoms: _652  and  _653
REMARK  277  A    between atoms: _658  and  _659
REMARK                            x       y       z     vdW  Elec       q    Type
REMARK                         _______ _______ _______ _____ _____    ______ ____
ROOT
ATOM      1  CB  PHE A   1      28.759  20.775  12.201  0.00  0.00    +0.051 C 
ENDROOT
BRANCH   1   2
ATOM      2  CG  PHE A   1      28.605  21.861  13.218  0.00  0.00    -0.020 A 
ATOM      3  CD2 PHE A   1      27.576  21.813  14.146  0.00  0.00    -0.004 A 
ATOM      4  CE2 PHE A   1      27.447  22.795  15.120  0.00  0.00    -0.000 A 
ATOM      5  CZ  PHE A   1      28.356  23.844  15.170  0.00  0.00    -0.000 A 
ATOM      6  CE1 PHE A   1      29.390  23.905  14.244  0.00  0.00    -0.000 A 
ATOM      7  CD1 PHE A   1      29.509  22.916  13.275  0.00  0.00    -0.004 A 
ENDBRANCH   1   2
BRANCH   1   8
ATOM      8  CA  PHE A   1      29.287  19.462  12.780  0.00  0.00    +0.137 C 
BRANCH   8   9
ATOM      9  N   PHE A   1      30.648  19.640  13.282  0.00  0.00    -0.239 NA
ATOM     10  H   PHE A   1      31.135  20.546  13.127  0.00  0.00    +0.142 HD
ENDBRANCH   8   9
BRANCH   8  11
ATOM     11  C   PHE A   1      29.160  18.362  11.725  0.00  0.00    +0.224 C 
ATOM     12  O   PHE A   1      28.095  17.765  11.564  0.00  0.00    -0.287 OA
ENDBRANCH   8  11
ENDBRANCH   1   8
TORSDOF 4
REMARK  Name = ../refined-set-2016/2i4z/2i4z_pocket.pdb
REMARK  277 active torsions:
REMARK  status: ('A' for Active; 'I' for Inactive)
REMARK    1  A    between atoms: _1  and  _3
REMARK    2  A    between atoms: _3  and  _4
REMARK    3  A    between atoms: _3  and  _6
REMARK    4  A    between atoms: _6  and  _7
REMARK    5  A    between atoms: _12  and  _13
REMARK    6  A    between atoms: _15  and  _17
REMARK    7  A    between atoms: _17  and  _18
REMARK    8  A    between atoms: _17  and  _20
REMARK    9  A    between atoms: _20  and  _21
REMARK   10  A    between atoms: _23  and  _25
REMARK   11  A    between atoms: _25  and  _26
REMARK   12  A    between atoms: _25  and  _28
REMARK   13  A    between atoms: _28  and  _29
REMARK   14  A    between atoms: _36  and  _37
REMARK   15  A    between atoms: _42  and  _44
REMARK   16  A    between atoms: _44  and  _45
REMARK   17  A    between atoms: _44  and  _47
REMARK   18  A    between atoms: _47  and  _48
REMARK   19  A    between atoms: _51  and  _53
REMARK   20  A    between atoms: _53  and  _54
REMARK   21  A    between atoms: _53  and  _56
REMARK   22  A    between atoms: _56  and  _57
REMARK   23  A    between atoms: _63  and  _65
REMARK   24  A    between atoms: _65  and  _66
REMARK   25  A    between atoms: _65  and  _68
REMARK   26  A    between atoms: _68  and  _69
REMARK   27  A    between atoms: _72  and  _74
REMARK   28  A    between atoms: _74  and  _75
REMARK   29  A    between atoms: _74  and  _77
REMARK   30  A    between atoms: _77  and  _78
REMARK   31  A    between atoms: _81  and  _83
REMARK   32  A    between atoms: _83  and  _84
REMARK   33  A    between atoms: _83  and  _86
REMARK   34  A    between atoms: _86  and  _87
REMARK   35  A    between atoms: _93  and  _95
REMARK   36  A    between atoms: _95  and  _96
REMARK   37  A    between atoms: _95  and  _98
REMARK   38  A    between atoms: _98  and  _99
REMARK   39  A    between atoms: _99  and  _100
REMARK   40  A    between atoms: _105  and  _107
REMARK   41  A    between atoms: _107  and  _108
REMARK   42  A    between atoms: _110  and  _112
REMARK   43  A    between atoms: _112  and  _113
REMARK   44  A    between atoms: _112  and  _115
REMARK   45  A    between atoms: _117  and  _119
REMARK   46  A    between atoms: _119  and  _120
REMARK   47  A    between atoms: _119  and  _122
REMARK   48  A    between atoms: _122  and  _123
REMARK   49  A    between atoms: _123  and  _124
REMARK   50  A    between atoms: _129  and  _131
REMARK   51  A    between atoms: _131  and  _132
REMARK   52  A    between atoms: _131  and  _134
REMARK   53  A    between atoms: _134  and  _135
REMARK   54  A    between atoms: _141  and  _143
REMARK   55  A    between atoms: _143  and  _144
REMARK   56  A    between atoms: _143  and  _146
REMARK   57  A    between atoms: _146  and  _147
REMARK   58  A    between atoms: _147  and  _148
REMARK   59  A    between atoms: _148  and  _149
REMARK   60  A    between atoms: _158  and  _160
REMARK   61  A    between atoms: _160  and  _161
REMARK   62  A    between atoms: _160  and  _163
REMARK   63  A    between atoms: _163  and  _164
REMARK   64  A    between atoms: _166  and  _168
REMARK   65  A    between atoms: _168  and  _169
REMARK   66  A    between atoms: _168  and  _171
REMARK   67  A    between atoms: _174  and  _176
REMARK   68  A    between atoms: _176  and  _177
REMARK   69  A    between atoms: _176  and  _179
REMARK   70  A    between atoms: _179  and  _180
REMARK   71  A    between atoms: _180  and  _181
REMARK   72  A    between atoms: _184  and  _186
REMARK   73  A    between atoms: _186  and  _187
REMARK   74  A    between atoms: _190  and  _192
REMARK   75  A    between atoms: _192  and  _193
REMARK   76  A    between atoms: _192  and  _195
REMARK   77  A    between atoms: _198  and  _200
REMARK   78  A    between atoms: _200  and  _201
REMARK   79  A    between atoms: _200  and  _203
REMARK   80  A    between atoms: _203  and  _204
REMARK   81  A    between atoms: _204  and  _205
REMARK   82  A    between atoms: _210  and  _212
REMARK   83  A    between atoms: _212  and  _213
REMARK   84  A    between atoms: _212  and  _215
REMARK   85  A    between atoms: _215  and  _216
REMARK   86  A    between atoms: _216  and  _217
REMARK   87  A    between atoms: _220  and  _222
REMARK   88  A    between atoms: _222  and  _223
REMARK   89  A    between atoms: _222  and  _225
REMARK   90  A    between atoms: _225  and  _226
REMARK   91  A    between atoms: _229  and  _231
REMARK   92  A    between atoms: _231  and  _232
REMARK   93  A    between atoms: _231  and  _234
REMARK   94  A    between atoms: _234  and  _235
REMARK   95  A    between atoms: _238  and  _240
REMARK   96  A    between atoms: _240  and  _241
REMARK   97  A    between atoms: _240  and  _243
REMARK   98  A    between atoms: _246  and  _248
REMARK   99  A    between atoms: _248  and  _249
REMARK  100  A    between atoms: _248  and  _251
REMARK  101  A    between atoms: _251  and  _252
REMARK  102  A    between atoms: _257  and  _259
REMARK  103  A    between atoms: _259  and  _260
REMARK  104  A    between atoms: _259  and  _262
REMARK  105  A    between atoms: _262  and  _263
REMARK  106  A    between atoms: _263  and  _264
REMARK  107  A    between atoms: _267  and  _269
REMARK  108  A    between atoms: _269  and  _270
REMARK  109  A    between atoms: _269  and  _272
REMARK  110  A    between atoms: _272  and  _273
REMARK  111  A    between atoms: _276  and  _278
REMARK  112  A    between atoms: _278  and  _279
REMARK  113  A    between atoms: _278  and  _281
REMARK  114  A    between atoms: _281  and  _282
REMARK  115  A    between atoms: _285  and  _287
REMARK  116  A    between atoms: _287  and  _288
REMARK  117  A    between atoms: _287  and  _290
REMARK  118  A    between atoms: _290  and  _291
REMARK  119  A    between atoms: _296  and  _297
REMARK  120  A    between atoms: _299  and  _301
REMARK  121  A    between atoms: _301  and  _302
REMARK  122  A    between atoms: _301  and  _304
REMARK  123  A    between atoms: _304  and  _305
REMARK  124  A    between atoms: _308  and  _310
REMARK  125  A    between atoms: _310  and  _311
REMARK  126  A    between atoms: _310  and  _313
REMARK  127  A    between atoms: _313  and  _314
REMARK  128  A    between atoms: _314  and  _315
REMARK  129  A    between atoms: _317  and  _319
REMARK  130  A    between atoms: _319  and  _320
REMARK  131  A    between atoms: _319  and  _322
REMARK  132  A    between atoms: _322  and  _323
REMARK  133  A    between atoms: _326  and  _328
REMARK  134  A    between atoms: _328  and  _329
REMARK  135  A    between atoms: _332  and  _334
REMARK  136  A    between atoms: _334  and  _335
REMARK  137  A    between atoms: _334  and  _337
REMARK  138  A    between atoms: _337  and  _338
REMARK  139  A    between atoms: _340  and  _342
REMARK  140  A    between atoms: _342  and  _343
REMARK  141  A    between atoms: _342  and  _345
REMARK  142  A    between atoms: _345  and  _346
REMARK  143  A    between atoms: _349  and  _351
REMARK  144  A    between atoms: _351  and  _352
REMARK  145  A    between atoms: _351  and  _354
REMARK  146  A    between atoms: _354  and  _355
REMARK  147  A    between atoms: _355  and  _356
REMARK  148  A    between atoms: _358  and  _360
REMARK  149  A    between atoms: _360  and  _361
REMARK  150  A    between atoms: _360  and  _363
REMARK  151  A    between atoms: _366  and  _368
REMARK  152  A    between atoms: _368  and  _369
REMARK  153  A    between atoms: _368  and  _371
REMARK  154  A    between atoms: _371  and  _372
REMARK  155  A    between atoms: _375  and  _377
REMARK  156  A    between atoms: _377  and  _378
REMARK  157  A    between atoms: _377  and  _380
REMARK  158  A    between atoms: _380  and  _381
REMARK  159  A    between atoms: _384  and  _386
REMARK  160  A    between atoms: _386  and  _387
REMARK  161  A    between atoms: _386  and  _389
REMARK  162  A    between atoms: _389  and  _390
REMARK  163  A    between atoms: _392  and  _394
REMARK  164  A    between atoms: _394  and  _395
REMARK  165  A    between atoms: _394  and  _397
REMARK  166  A    between atoms: _397  and  _398
REMARK  167  A    between atoms: _398  and  _399
REMARK  168  A    between atoms: _402  and  _404
REMARK  169  A    between atoms: _404  and  _405
REMARK  170  A    between atoms: _404  and  _407
REMARK  171  A    between atoms: _407  and  _408
REMARK  172  A    between atoms: _414  and  _416
REMARK  173  A    between atoms: _416  and  _417
REMARK  174  A    between atoms: _416  and  _419
REMARK  175  A    between atoms: _419  and  _420
REMARK  176  A    between atoms: _420  and  _421
REMARK  177  A    between atoms: _423  and  _425
REMARK  178  A    between atoms: _425  and  _426
REMARK  179  A    between atoms: _425  and  _428
REMARK  180  A    between atoms: _428  and  _429
REMARK  181  A    between atoms: _432  and  _434
REMARK  182  A    between atoms: _434  and  _435
REMARK  183  A    between atoms: _434  and  _437
REMARK  184  A    between atoms: _437  and  _438
REMARK  185  A    between atoms: _441  and  _443
REMARK  186  A    between atoms: _443  and  _444
REMARK  187  A    between atoms: _443  and  _446
REMARK  188  A    between atoms: _446  and  _447
REMARK  189  A    between atoms: _450  and  _452
REMARK  190  A    between atoms: _452  and  _453
REMARK  191  A    between atoms: _452  and  _455
REMARK  192  A    between atoms: _455  and  _456
REMARK  193  A    between atoms: _462  and  _464
REMARK  194  A    between atoms: _464  and  _465
REMARK  195  A    between atoms: _464  and  _467
REMARK  196  A    between atoms: _467  and  _468
REMARK  197  A    between atoms: _474  and  _476
REMARK  198  A    between atoms: _476  and  _477
REMARK  199  A    between atoms: _476  and  _479
REMARK  200  A    between atoms: _479  and  _480
REMARK  201  A    between atoms: _480  and  _481
REMARK  202  A    between atoms: _483  and  _485
REMARK  203  A    between atoms: _485  and  _486
REMARK  204  A    between atoms: _485  and  _488
REMARK  205  A    between atoms: _488  and  _489
REMARK  206  A    between atoms: _489  and  _490
REMARK  207  A    between atoms: _490  and  _491
REMARK  208  A    between atoms: _491  and  _492
REMARK  209  A    between atoms: _496  and  _498
REMARK  210  A    between atoms: _498  and  _499
REMARK  211  A    between atoms: _498  and  _501
REMARK  212  A    between atoms: _501  and  _502
REMARK  213  A    between atoms: _508  and  _510
REMARK  214  A    between atoms: _510  and  _511
REMARK  215  A    between atoms: _510  and  _513
REMARK  216  A    between atoms: _513  and  _514
REMARK  217  A    between atoms: _517  and  _519
REMARK  218  A    between atoms: _519  and  _520
REMARK  219  A    between atoms: _519  and  _522
REMARK  220  A    between atoms: _522  and  _523
REMARK  221  A    between atoms: _526  and  _528
REMARK  222  A    between atoms: _528  and  _529
REMARK  223  A    between atoms: _528  and  _531
REMARK  224  A    between atoms: _534  and  _536
REMARK  225  A    between atoms: _536  and  _537
REMARK  226  A    between atoms: _536  and  _539
REMARK  227  A    between atoms: _539  and  _540
REMARK  228  A    between atoms: _545  and  _547
REMARK  229  A    between atoms: _547  and  _548
REMARK  230  A    between atoms: _547  and  _550
REMARK  231  A    between atoms: _553  and  _555
REMARK  232  A    between atoms: _555  and  _556
REMARK  233  A    between atoms: _555  and  _558
REMARK  234  A    between atoms: _558  and  _559
REMARK  235  A    between atoms: _562  and  _564
REMARK  236  A    between atoms: _564  and  _565
REMARK  237  A    between atoms: _564  and  _567
REMARK  238  A    between atoms: _567  and  _568
REMARK  239  A    between atoms: _571  and  _573
REMARK  240  A    between atoms: _573  and  _574
REMARK  241  A    between atoms: _573  and  _576
REMARK  242  A    between atoms: _576  and  _577
REMARK  243  A    between atoms: _580  and  _582
REMARK  244  A    between atoms: _582  and  _583
REMARK  245  A    between atoms: _582  and  _585
REMARK  246  A    between atoms: _585  and  _586
REMARK  247  A    between atoms: _586  and  _587
REMARK  248  A    between atoms: _589  and  _591
REMARK  249  A    between atoms: _591  and  _592
REMARK  250  A    between atoms: _591  and  _594
REMARK  251  A    between atoms: _594  and  _595
REMARK  252  A    between atoms: _597  and  _599
REMARK  253  A    between atoms: _599  and  _600
REMARK  254  A    between atoms: _599  and  _602
REMARK  255  A    between atoms: _602  and  _603
REMARK  256  A    between atoms: _606  and  _608
REMARK  257  A    between atoms: _608  and  _609
REMARK  258  A    between atoms: _608  and  _611
REMARK  259  A    between atoms: _611  and  _612
REMARK  260  A    between atoms: _617  and  _619
REMARK  261  A    between atoms: _619  and  _620
REMARK  262  A    between atoms: _619  and  _622
REMARK  263  A    between atoms: _622  and  _623
REMARK  264  A    between atoms: _626  and  _628
REMARK  265  A    between atoms: _628  and  _629
REMARK  266  A    between atoms: _628  and  _631
REMARK  267  A    between atoms: _631  and  _632
REMARK  268  A    between atoms: _632  and  _633
REMARK  269  A    between atoms: _638  and  _640
REMARK  270  A    between atoms: _640  and  _641
REMARK  271  A    between atoms: _640  and  _643
REMARK  272  A    between atoms: _643  and  _644
REMARK  273  A    between atoms: _647  and  _649
REMARK  274  A    between atoms: _649  and  _650
REMARK  275  A    between atoms: _649  and  _652
REMARK  276  A    between atoms: _652  and  _653
REMARK  277  A    between atoms: _658  and  _659
REMARK                            x       y       z     vdW  Elec       q    Type
REMARK                         _______ _______ _______ _____ _____    ______ ____
ROOT
ATOM      1  C   PHE A   1      25.427  13.827  13.682  0.00  0.00    +0.239 C 
ATOM      2  O   PHE A   1      24.849  13.111  14.495  0.00  0.00    -0.274 OA
ATOM      3  N   MET A   2      25.197  13.769  12.372  0.00  0.00    -0.298 N 
ATOM      4  H   MET A   2      25.765  14.363  11.735  0.00  0.00    +0.150 HD
ENDROOT
BRANCH   1   5
ATOM      5  CA  PHE A   1      26.488  14.825  14.144  0.00  0.00    +0.149 C 
BRANCH   5   6
ATOM      6  N   PHE A   1      27.595  14.876  13.207  0.00  0.00    -0.238 NA
ATOM      7  H   PHE A   1      27.684  15.683  12.557  0.00  0.00    +0.142 HD
ENDBRANCH   5   6
BRANCH   5   8
ATOM      8  CB  PHE A   1      25.845  16.209  14.288  0.00  0.00    +0.053 C 
BRANCH   8   9
ATOM      9  CG  PHE A   1      26.158  16.892  15.592  0.00  0.00    -0.020 A 
ATOM     10  CD2 PHE A   1      25.642  16.401  16.791  0.00  0.00    -0.004 A 
ATOM     11  CE2 PHE A   1      25.942  17.022  18.006  0.00  0.00    -0.000 A 
ATOM     12  CZ  PHE A   1      26.762  18.144  18.029  0.00  0.00    -0.000 A 
ATOM     13  CE1 PHE A   1      27.282  18.644  16.837  0.00  0.00    -0.000 A 
ATOM     14  CD1 PHE A   1      26.978  18.018  15.626  0.00  0.00    -0.004 A 
ENDBRANCH   8   9
ENDBRANCH   5   8
ENDBRANCH   1   5
BRANCH   3  15
ATOM     15  CA  MET A   2      24.174  12.898  11.801  0.00  0.00    +0.138 C 
BRANCH  15  16
ATOM     16  C   MET A   2      24.556  11.476  11.375  0.00  0.00    +0.227 C 
ATOM     17  O   MET A   2      23.701  10.586  11.379  0.00  0.00    -0.286 OA
ENDBRANCH  15  16
BRANCH  15  18
ATOM     18  CB  MET A   2      23.518  13.602  10.617  0.00  0.00    +0.039 C 
BRANCH  18  19
ATOM     19  CG  MET A   2      22.729  14.846  10.993  0.00  0.00    +0.060 C 
BRANCH  19  20
ATOM     20  SD  MET A   2      21.377  14.501  12.135  0.00  0.00    -0.139 S 
ATOM     21  CE  MET A   2      20.234  13.668  11.077  0.00  0.00    +0.069 C 
ENDBRANCH  19  20
ENDBRANCH  18  19
ENDBRANCH  15  18
ENDBRANCH   3  15
TORSDOF 9
REMARK  Name = ../refined-set-2016/2i4z/2i4z_pocket.pdb
REMARK  277 active torsions:
REMARK  status: ('A' for Active; 'I' for Inactive)
REMARK    1  A    between atoms: _1  and  _3
REMARK    2  A    between atoms: _3  and  _4
REMARK    3  A    between atoms: _3  and  _6
REMARK    4  A    between atoms: _6  and  _7
REMARK    5  A    between atoms: _12  and  _13
REMARK    6  A    between atoms: _15  and  _17
REMARK    7  A    between atoms: _17  and  _18
REMARK    8  A    between atoms: _17  and  _20
REMARK    9  A    between atoms: _20  and  _21
REMARK   10  A    between atoms: _23  and  _25
REMARK   11  A    between atoms: _25  and  _26
REMARK   12  A    between atoms: _25  and  _28
REMARK   13  A    between atoms: _28  and  _29
REMARK   14  A    between atoms: _36  and  _37
REMARK   15  A    between atoms: _42  and  _44
REMARK   16  A    between atoms: _44  and  _45
REMARK   17  A    between atoms: _44  and  _47
REMARK   18  A    between atoms: _47  and  _48
REMARK   19  A    between atoms: _51  and  _53
REMARK   20  A    between atoms: _53  and  _54
REMARK   21  A    between atoms: _53  and  _56
REMARK   22  A    between atoms: _56  and  _57
REMARK   23  A    between atoms: _63  and  _65
REMARK   24  A    between atoms: _65  and  _66
REMARK   25  A    between atoms: _65  and  _68
REMARK   26  A    between atoms: _68  and  _69
REMARK   27  A    between atoms: _72  and  _74
REMARK   28  A    between atoms: _74  and  _75
REMARK   29  A    between atoms: _74  and  _77
REMARK   30  A    between atoms: _77  and  _78
REMARK   31  A    between atoms: _81  and  _83
REMARK   32  A    between atoms: _83  and  _84
REMARK   33  A    between atoms: _83  and  _86
REMARK   34  A    between atoms: _86  and  _87
REMARK   35  A    between atoms: _93  and  _95
REMARK   36  A    between atoms: _95  and  _96
REMARK   37  A    between atoms: _95  and  _98
REMARK   38  A    between atoms: _98  and  _99
REMARK   39  A    between atoms: _99  and  _100
REMARK   40  A    between atoms: _105  and  _107
REMARK   41  A    between atoms: _107  and  _108
REMARK   42  A    between atoms: _110  and  _112
REMARK   43  A    between atoms: _112  and  _113
REMARK   44  A    between atoms: _112  and  _115
REMARK   45  A    between atoms: _117  and  _119
REMARK   46  A    between atoms: _119  and  _120
REMARK   47  A    between atoms: _119  and  _122
REMARK   48  A    between atoms: _122  and  _123
REMARK   49  A    between atoms: _123  and  _124
REMARK   50  A    between atoms: _129  and  _131
REMARK   51  A    between atoms: _131  and  _132
REMARK   52  A    between atoms: _131  and  _134
REMARK   53  A    between atoms: _134  and  _135
REMARK   54  A    between atoms: _141  and  _143
REMARK   55  A    between atoms: _143  and  _144
REMARK   56  A    between atoms: _143  and  _146
REMARK   57  A    between atoms: _146  and  _147
REMARK   58  A    between atoms: _147  and  _148
REMARK   59  A    between atoms: _148  and  _149
REMARK   60  A    between atoms: _158  and  _160
REMARK   61  A    between atoms: _160  and  _161
REMARK   62  A    between atoms: _160  and  _163
REMARK   63  A    between atoms: _163  and  _164
REMARK   64  A    between atoms: _166  and  _168
REMARK   65  A    between atoms: _168  and  _169
REMARK   66  A    between atoms: _168  and  _171
REMARK   67  A    between atoms: _174  and  _176
REMARK   68  A    between atoms: _176  and  _177
REMARK   69  A    between atoms: _176  and  _179
REMARK   70  A    between atoms: _179  and  _180
REMARK   71  A    between atoms: _180  and  _181
REMARK   72  A    between atoms: _184  and  _186
REMARK   73  A    between atoms: _186  and  _187
REMARK   74  A    between atoms: _190  and  _192
REMARK   75  A    between atoms: _192  and  _193
REMARK   76  A    between atoms: _192  and  _195
REMARK   77  A    between atoms: _198  and  _200
REMARK   78  A    between atoms: _200  and  _201
REMARK   79  A    between atoms: _200  and  _203
REMARK   80  A    between atoms: _203  and  _204
REMARK   81  A    between atoms: _204  and  _205
REMARK   82  A    between atoms: _210  and  _212
REMARK   83  A    between atoms: _212  and  _213
REMARK   84  A    between atoms: _212  and  _215
REMARK   85  A    between atoms: _215  and  _216
REMARK   86  A    between atoms: _216  and  _217
REMARK   87  A    between atoms: _220  and  _222
REMARK   88  A    between atoms: _222  and  _223
REMARK   89  A    between atoms: _222  and  _225
REMARK   90  A    between atoms: _225  and  _226
REMARK   91  A    between atoms: _229  and  _231
REMARK   92  A    between atoms: _231  and  _232
REMARK   93  A    between atoms: _231  and  _234
REMARK   94  A    between atoms: _234  and  _235
REMARK   95  A    between atoms: _238  and  _240
REMARK   96  A    between atoms: _240  and  _241
REMARK   97  A    between atoms: _240  and  _243
REMARK   98  A    between atoms: _246  and  _248
REMARK   99  A    between atoms: _248  and  _249
REMARK  100  A    between atoms: _248  and  _251
REMARK  101  A    between atoms: _251  and  _252
REMARK  102  A    between atoms: _257  and  _259
REMARK  103  A    between atoms: _259  and  _260
REMARK  104  A    between atoms: _259  and  _262
REMARK  105  A    between atoms: _262  and  _263
REMARK  106  A    between atoms: _263  and  _264
REMARK  107  A    between atoms: _267  and  _269
REMARK  108  A    between atoms: _269  and  _270
REMARK  109  A    between atoms: _269  and  _272
REMARK  110  A    between atoms: _272  and  _273
REMARK  111  A    between atoms: _276  and  _278
REMARK  112  A    between atoms: _278  and  _279
REMARK  113  A    between atoms: _278  and  _281
REMARK  114  A    between atoms: _281  and  _282
REMARK  115  A    between atoms: _285  and  _287
REMARK  116  A    between atoms: _287  and  _288
REMARK  117  A    between atoms: _287  and  _290
REMARK  118  A    between atoms: _290  and  _291
REMARK  119  A    between atoms: _296  and  _297
REMARK  120  A    between atoms: _299  and  _301
REMARK  121  A    between atoms: _301  and  _302
REMARK  122  A    between atoms: _301  and  _304
REMARK  123  A    between atoms: _304  and  _305
REMARK  124  A    between atoms: _308  and  _310
REMARK  125  A    between atoms: _310  and  _311
REMARK  126  A    between atoms: _310  and  _313
REMARK  127  A    between atoms: _313  and  _314
REMARK  128  A    between atoms: _314  and  _315
REMARK  129  A    between atoms: _317  and  _319
REMARK  130  A    between atoms: _319  and  _320
REMARK  131  A    between atoms: _319  and  _322
REMARK  132  A    between atoms: _322  and  _323
REMARK  133  A    between atoms: _326  and  _328
REMARK  134  A    between atoms: _328  and  _329
REMARK  135  A    between atoms: _332  and  _334
REMARK  136  A    between atoms: _334  and  _335
REMARK  137  A    between atoms: _334  and  _337
REMARK  138  A    between atoms: _337  and  _338
REMARK  139  A    between atoms: _340  and  _342
REMARK  140  A    between atoms: _342  and  _343
REMARK  141  A    between atoms: _342  and  _345
REMARK  142  A    between atoms: _345  and  _346
REMARK  143  A    between atoms: _349  and  _351
REMARK  144  A    between atoms: _351  and  _352
REMARK  145  A    between atoms: _351  and  _354
REMARK  146  A    between atoms: _354  and  _355
REMARK  147  A    between atoms: _355  and  _356
REMARK  148  A    between atoms: _358  and  _360
REMARK  149  A    between atoms: _360  and  _361
REMARK  150  A    between atoms: _360  and  _363
REMARK  151  A    between atoms: _366  and  _368
REMARK  152  A    between atoms: _368  and  _369
REMARK  153  A    between atoms: _368  and  _371
REMARK  154  A    between atoms: _371  and  _372
REMARK  155  A    between atoms: _375  and  _377
REMARK  156  A    between atoms: _377  and  _378
REMARK  157  A    between atoms: _377  and  _380
REMARK  158  A    between atoms: _380  and  _381
REMARK  159  A    between atoms: _384  and  _386
REMARK  160  A    between atoms: _386  and  _387
REMARK  161  A    between atoms: _386  and  _389
REMARK  162  A    between atoms: _389  and  _390
REMARK  163  A    between atoms: _392  and  _394
REMARK  164  A    between atoms: _394  and  _395
REMARK  165  A    between atoms: _394  and  _397
REMARK  166  A    between atoms: _397  and  _398
REMARK  167  A    between atoms: _398  and  _399
REMARK  168  A    between atoms: _402  and  _404
REMARK  169  A    between atoms: _404  and  _405
REMARK  170  A    between atoms: _404  and  _407
REMARK  171  A    between atoms: _407  and  _408
REMARK  172  A    between atoms: _414  and  _416
REMARK  173  A    between atoms: _416  and  _417
REMARK  174  A    between atoms: _416  and  _419
REMARK  175  A    between atoms: _419  and  _420
REMARK  176  A    between atoms: _420  and  _421
REMARK  177  A    between atoms: _423  and  _425
REMARK  178  A    between atoms: _425  and  _426
REMARK  179  A    between atoms: _425  and  _428
REMARK  180  A    between atoms: _428  and  _429
REMARK  181  A    between atoms: _432  and  _434
REMARK  182  A    between atoms: _434  and  _435
REMARK  183  A    between atoms: _434  and  _437
REMARK  184  A    between atoms: _437  and  _438
REMARK  185  A    between atoms: _441  and  _443
REMARK  186  A    between atoms: _443  and  _444
REMARK  187  A    between atoms: _443  and  _446
REMARK  188  A    between atoms: _446  and  _447
REMARK  189  A    between atoms: _450  and  _452
REMARK  190  A    between atoms: _452  and  _453
REMARK  191  A    between atoms: _452  and  _455
REMARK  192  A    between atoms: _455  and  _456
REMARK  193  A    between atoms: _462  and  _464
REMARK  194  A    between atoms: _464  and  _465
REMARK  195  A    between atoms: _464  and  _467
REMARK  196  A    between atoms: _467  and  _468
REMARK  197  A    between atoms: _474  and  _476
REMARK  198  A    between atoms: _476  and  _477
REMARK  199  A    between atoms: _476  and  _479
REMARK  200  A    between atoms: _479  and  _480
REMARK  201  A    between atoms: _480  and  _481
REMARK  202  A    between atoms: _483  and  _485
REMARK  203  A    between atoms: _485  and  _486
REMARK  204  A    between atoms: _485  and  _488
REMARK  205  A    between atoms: _488  and  _489
REMARK  206  A    between atoms: _489  and  _490
REMARK  207  A    between atoms: _490  and  _491
REMARK  208  A    between atoms: _491  and  _492
REMARK  209  A    between atoms: _496  and  _498
REMARK  210  A    between atoms: _498  and  _499
REMARK  211  A    between atoms: _498  and  _501
REMARK  212  A    between atoms: _501  and  _502
REMARK  213  A    between atoms: _508  and  _510
REMARK  214  A    between atoms: _510  and  _511
REMARK  215  A    between atoms: _510  and  _513
REMARK  216  A    between atoms: _513  and  _514
REMARK  217  A    between atoms: _517  and  _519
REMARK  218  A    between atoms: _519  and  _520
REMARK  219  A    between atoms: _519  and  _522
REMARK  220  A    between atoms: _522  and  _523
REMARK  221  A    between atoms: _526  and  _528
REMARK  222  A    between atoms: _528  and  _529
REMARK  223  A    between atoms: _528  and  _531
REMARK  224  A    between atoms: _534  and  _536
REMARK  225  A    between atoms: _536  and  _537
REMARK  226  A    between atoms: _536  and  _539
REMARK  227  A    between atoms: _539  and  _540
REMARK  228  A    between atoms: _545  and  _547
REMARK  229  A    between atoms: _547  and  _548
REMARK  230  A    between atoms: _547  and  _550
REMARK  231  A    between atoms: _553  and  _555
REMARK  232  A    between atoms: _555  and  _556
REMARK  233  A    between atoms: _555  and  _558
REMARK  234  A    between atoms: _558  and  _559
REMARK  235  A    between atoms: _562  and  _564
REMARK  236  A    between atoms: _564  and  _565
REMARK  237  A    between atoms: _564  and  _567
REMARK  238  A    between atoms: _567  and  _568
REMARK  239  A    between atoms: _571  and  _573
REMARK  240  A    between atoms: _573  and  _574
REMARK  241  A    between atoms: _573  and  _576
REMARK  242  A    between atoms: _576  and  _577
REMARK  243  A    between atoms: _580  and  _582
REMARK  244  A    between atoms: _582  and  _583
REMARK  245  A    between atoms: _582  and  _585
REMARK  246  A    between atoms: _585  and  _586
REMARK  247  A    between atoms: _586  and  _587
REMARK  248  A    between atoms: _589  and  _591
REMARK  249  A    between atoms: _591  and  _592
REMARK  250  A    between atoms: _591  and  _594
REMARK  251  A    between atoms: _594  and  _595
REMARK  252  A    between atoms: _597  and  _599
REMARK  253  A    between atoms: _599  and  _600
REMARK  254  A    between atoms: _599  and  _602
REMARK  255  A    between atoms: _602  and  _603
REMARK  256  A    between atoms: _606  and  _608
REMARK  257  A    between atoms: _608  and  _609
REMARK  258  A    between atoms: _608  and  _611
REMARK  259  A    between atoms: _611  and  _612
REMARK  260  A    between atoms: _617  and  _619
REMARK  261  A    between atoms: _619  and  _620
REMARK  262  A    between atoms: _619  and  _622
REMARK  263  A    between atoms: _622  and  _623
REMARK  264  A    between atoms: _626  and  _628
REMARK  265  A    between atoms: _628  and  _629
REMARK  266  A    between atoms: _628  and  _631
REMARK  267  A    between atoms: _631  and  _632
REMARK  268  A    between atoms: _632  and  _633
REMARK  269  A    between atoms: _638  and  _640
REMARK  270  A    between atoms: _640  and  _641
REMARK  271  A    between atoms: _640  and  _643
REMARK  272  A    between atoms: _643  and  _644
REMARK  273  A    between atoms: _647  and  _649
REMARK  274  A    between atoms: _649  and  _650
REMARK  275  A    between atoms: _649  and  _652
REMARK  276  A    between atoms: _652  and  _653
REMARK  277  A    between atoms: _658  and  _659
REMARK                            x       y       z     vdW  Elec       q    Type
REMARK                         _______ _______ _______ _____ _____    ______ ____
ROOT
ATOM      1  C   LYS A   1      21.454   7.745  11.924  0.00  0.00    +0.238 C 
ATOM      2  O   LYS A   1      20.538   6.924  11.910  0.00  0.00    -0.274 OA
ATOM      3  N   PHE A   2      22.209   8.013  10.862  0.00  0.00    -0.298 N 
ATOM      4  H   PHE A   2      22.959   8.728  10.948  0.00  0.00    +0.150 HD
ENDROOT
BRANCH   1   5
ATOM      5  CA  LYS A   1      21.794   8.519  13.199  0.00  0.00    +0.145 C 
BRANCH   5   6
ATOM      6  N   LYS A   1      23.247   8.648  13.256  0.00  0.00    -0.238 NA
ATOM      7  H   LYS A   1      23.694   9.556  13.019  0.00  0.00    +0.142 HD
ENDBRANCH   5   6
BRANCH   5   8
ATOM      8  CB  LYS A   1      21.117   9.896  13.174  0.00  0.00    +0.026 C 
BRANCH   8   9
ATOM      9  CG  LYS A   1      21.786  10.958  14.051  0.00  0.00    -0.000 C 
BRANCH   9  10
ATOM     10  CD  LYS A   1      22.003  10.483  15.469  0.00  0.00    -0.024 C 
BRANCH  10  11
ATOM     11  CE  LYS A   1      22.976  11.394  16.213  0.00  0.00    -0.086 C 
BRANCH  11  12
ATOM     12  NZ  LYS A   1      22.490  12.798  16.384  0.00  0.00    +0.380 N 
ATOM     13  HZ1 LYS A   1      21.601  12.793  16.924  0.00  0.00    -0.089 HD
ATOM     14  HZ2 LYS A   1      23.206  13.351  16.897  0.00  0.00    -0.089 HD
ATOM     15  HZ3 LYS A   1      22.326  13.223  15.449  0.00  0.00    -0.089 HD
ENDBRANCH  11  12
ENDBRANCH  10  11
ENDBRANCH   9  10
ENDBRANCH   8   9
ENDBRANCH   5   8
ENDBRANCH   1   5
BRANCH   3  16
ATOM     16  CA  PHE A   2      22.024   7.341   9.581  0.00  0.00    +0.141 C 
BRANCH  16  17
ATOM     17  C   PHE A   2      22.369   5.862   9.690  0.00  0.00    +0.227 C 
ATOM     18  O   PHE A   2      21.629   5.003   9.203  0.00  0.00    -0.286 OA
ENDBRANCH  16  17
BRANCH  16  19
ATOM     19  CB  PHE A   2      22.925   7.969   8.521  0.00  0.00    +0.054 C 
BRANCH  19  20
ATOM     20  CG  PHE A   2      22.350   9.190   7.875  0.00  0.00    -0.020 A 
ATOM     21  CD2 PHE A   2      22.924  10.442   8.090  0.00  0.00    -0.004 A 
ATOM     22  CE2 PHE A   2      22.404  11.582   7.477  0.00  0.00    -0.000 A 
ATOM     23  CZ  PHE A   2      21.293  11.471   6.639  0.00  0.00    -0.000 A 
ATOM     24  CE1 PHE A   2      20.711  10.219   6.421  0.00  0.00    -0.000 A 
ATOM     25  CD1 PHE A   2      21.242   9.091   7.038  0.00  0.00    -0.004 A 
ENDBRANCH  19  20
ENDBRANCH  16  19
ENDBRANCH   3  16
TORSDOF 11
REMARK  Name = ../refined-set-2016/2i4z/2i4z_pocket.pdb
REMARK  277 active torsions:
REMARK  status: ('A' for Active; 'I' for Inactive)
REMARK    1  A    between atoms: _1  and  _3
REMARK    2  A    between atoms: _3  and  _4
REMARK    3  A    between atoms: _3  and  _6
REMARK    4  A    between atoms: _6  and  _7
REMARK    5  A    between atoms: _12  and  _13
REMARK    6  A    between atoms: _15  and  _17
REMARK    7  A    between atoms: _17  and  _18
REMARK    8  A    between atoms: _17  and  _20
REMARK    9  A    between atoms: _20  and  _21
REMARK   10  A    between atoms: _23  and  _25
REMARK   11  A    between atoms: _25  and  _26
REMARK   12  A    between atoms: _25  and  _28
REMARK   13  A    between atoms: _28  and  _29
REMARK   14  A    between atoms: _36  and  _37
REMARK   15  A    between atoms: _42  and  _44
REMARK   16  A    between atoms: _44  and  _45
REMARK   17  A    between atoms: _44  and  _47
REMARK   18  A    between atoms: _47  and  _48
REMARK   19  A    between atoms: _51  and  _53
REMARK   20  A    between atoms: _53  and  _54
REMARK   21  A    between atoms: _53  and  _56
REMARK   22  A    between atoms: _56  and  _57
REMARK   23  A    between atoms: _63  and  _65
REMARK   24  A    between atoms: _65  and  _66
REMARK   25  A    between atoms: _65  and  _68
REMARK   26  A    between atoms: _68  and  _69
REMARK   27  A    between atoms: _72  and  _74
REMARK   28  A    between atoms: _74  and  _75
REMARK   29  A    between atoms: _74  and  _77
REMARK   30  A    between atoms: _77  and  _78
REMARK   31  A    between atoms: _81  and  _83
REMARK   32  A    between atoms: _83  and  _84
REMARK   33  A    between atoms: _83  and  _86
REMARK   34  A    between atoms: _86  and  _87
REMARK   35  A    between atoms: _93  and  _95
REMARK   36  A    between atoms: _95  and  _96
REMARK   37  A    between atoms: _95  and  _98
REMARK   38  A    between atoms: _98  and  _99
REMARK   39  A    between atoms: _99  and  _100
REMARK   40  A    between atoms: _105  and  _107
REMARK   41  A    between atoms: _107  and  _108
REMARK   42  A    between atoms: _110  and  _112
REMARK   43  A    between atoms: _112  and  _113
REMARK   44  A    between atoms: _112  and  _115
REMARK   45  A    between atoms: _117  and  _119
REMARK   46  A    between atoms: _119  and  _120
REMARK   47  A    between atoms: _119  and  _122
REMARK   48  A    between atoms: _122  and  _123
REMARK   49  A    between atoms: _123  and  _124
REMARK   50  A    between atoms: _129  and  _131
REMARK   51  A    between atoms: _131  and  _132
REMARK   52  A    between atoms: _131  and  _134
REMARK   53  A    between atoms: _134  and  _135
REMARK   54  A    between atoms: _141  and  _143
REMARK   55  A    between atoms: _143  and  _144
REMARK   56  A    between atoms: _143  and  _146
REMARK   57  A    between atoms: _146  and  _147
REMARK   58  A    between atoms: _147  and  _148
REMARK   59  A    between atoms: _148  and  _149
REMARK   60  A    between atoms: _158  and  _160
REMARK   61  A    between atoms: _160  and  _161
REMARK   62  A    between atoms: _160  and  _163
REMARK   63  A    between atoms: _163  and  _164
REMARK   64  A    between atoms: _166  and  _168
REMARK   65  A    between atoms: _168  and  _169
REMARK   66  A    between atoms: _168  and  _171
REMARK   67  A    between atoms: _174  and  _176
REMARK   68  A    between atoms: _176  and  _177
REMARK   69  A    between atoms: _176  and  _179
REMARK   70  A    between atoms: _179  and  _180
REMARK   71  A    between atoms: _180  and  _181
REMARK   72  A    between atoms: _184  and  _186
REMARK   73  A    between atoms: _186  and  _187
REMARK   74  A    between atoms: _190  and  _192
REMARK   75  A    between atoms: _192  and  _193
REMARK   76  A    between atoms: _192  and  _195
REMARK   77  A    between atoms: _198  and  _200
REMARK   78  A    between atoms: _200  and  _201
REMARK   79  A    between atoms: _200  and  _203
REMARK   80  A    between atoms: _203  and  _204
REMARK   81  A    between atoms: _204  and  _205
REMARK   82  A    between atoms: _210  and  _212
REMARK   83  A    between atoms: _212  and  _213
REMARK   84  A    between atoms: _212  and  _215
REMARK   85  A    between atoms: _215  and  _216
REMARK   86  A    between atoms: _216  and  _217
REMARK   87  A    between atoms: _220  and  _222
REMARK   88  A    between atoms: _222  and  _223
REMARK   89  A    between atoms: _222  and  _225
REMARK   90  A    between atoms: _225  and  _226
REMARK   91  A    between atoms: _229  and  _231
REMARK   92  A    between atoms: _231  and  _232
REMARK   93  A    between atoms: _231  and  _234
REMARK   94  A    between atoms: _234  and  _235
REMARK   95  A    between atoms: _238  and  _240
REMARK   96  A    between atoms: _240  and  _241
REMARK   97  A    between atoms: _240  and  _243
REMARK   98  A    between atoms: _246  and  _248
REMARK   99  A    between atoms: _248  and  _249
REMARK  100  A    between atoms: _248  and  _251
REMARK  101  A    between atoms: _251  and  _252
REMARK  102  A    between atoms: _257  and  _259
REMARK  103  A    between atoms: _259  and  _260
REMARK  104  A    between atoms: _259  and  _262
REMARK  105  A    between atoms: _262  and  _263
REMARK  106  A    between atoms: _263  and  _264
REMARK  107  A    between atoms: _267  and  _269
REMARK  108  A    between atoms: _269  and  _270
REMARK  109  A    between atoms: _269  and  _272
REMARK  110  A    between atoms: _272  and  _273
REMARK  111  A    between atoms: _276  and  _278
REMARK  112  A    between atoms: _278  and  _279
REMARK  113  A    between atoms: _278  and  _281
REMARK  114  A    between atoms: _281  and  _282
REMARK  115  A    between atoms: _285  and  _287
REMARK  116  A    between atoms: _287  and  _288
REMARK  117  A    between atoms: _287  and  _290
REMARK  118  A    between atoms: _290  and  _291
REMARK  119  A    between atoms: _296  and  _297
REMARK  120  A    between atoms: _299  and  _301
REMARK  121  A    between atoms: _301  and  _302
REMARK  122  A    between atoms: _301  and  _304
REMARK  123  A    between atoms: _304  and  _305
REMARK  124  A    between atoms: _308  and  _310
REMARK  125  A    between atoms: _310  and  _311
REMARK  126  A    between atoms: _310  and  _313
REMARK  127  A    between atoms: _313  and  _314
REMARK  128  A    between atoms: _314  and  _315
REMARK  129  A    between atoms: _317  and  _319
REMARK  130  A    between atoms: _319  and  _320
REMARK  131  A    between atoms: _319  and  _322
REMARK  132  A    between atoms: _322  and  _323
REMARK  133  A    between atoms: _326  and  _328
REMARK  134  A    between atoms: _328  and  _329
REMARK  135  A    between atoms: _332  and  _334
REMARK  136  A    between atoms: _334  and  _335
REMARK  137  A    between atoms: _334  and  _337
REMARK  138  A    between atoms: _337  and  _338
REMARK  139  A    between atoms: _340  and  _342
REMARK  140  A    between atoms: _342  and  _343
REMARK  141  A    between atoms: _342  and  _345
REMARK  142  A    between atoms: _345  and  _346
REMARK  143  A    between atoms: _349  and  _351
REMARK  144  A    between atoms: _351  and  _352
REMARK  145  A    between atoms: _351  and  _354
REMARK  146  A    between atoms: _354  and  _355
REMARK  147  A    between atoms: _355  and  _356
REMARK  148  A    between atoms: _358  and  _360
REMARK  149  A    between atoms: _360  and  _361
REMARK  150  A    between atoms: _360  and  _363
REMARK  151  A    between atoms: _366  and  _368
REMARK  152  A    between atoms: _368  and  _369
REMARK  153  A    between atoms: _368  and  _371
REMARK  154  A    between atoms: _371  and  _372
REMARK  155  A    between atoms: _375  and  _377
REMARK  156  A    between atoms: _377  and  _378
REMARK  157  A    between atoms: _377  and  _380
REMARK  158  A    between atoms: _380  and  _381
REMARK  159  A    between atoms: _384  and  _386
REMARK  160  A    between atoms: _386  and  _387
REMARK  161  A    between atoms: _386  and  _389
REMARK  162  A    between atoms: _389  and  _390
REMARK  163  A    between atoms: _392  and  _394
REMARK  164  A    between atoms: _394  and  _395
REMARK  165  A    between atoms: _394  and  _397
REMARK  166  A    between atoms: _397  and  _398
REMARK  167  A    between atoms: _398  and  _399
REMARK  168  A    between atoms: _402  and  _404
REMARK  169  A    between atoms: _404  and  _405
REMARK  170  A    between atoms: _404  and  _407
REMARK  171  A    between atoms: _407  and  _408
REMARK  172  A    between atoms: _414  and  _416
REMARK  173  A    between atoms: _416  and  _417
REMARK  174  A    between atoms: _416  and  _419
REMARK  175  A    between atoms: _419  and  _420
REMARK  176  A    between atoms: _420  and  _421
REMARK  177  A    between atoms: _423  and  _425
REMARK  178  A    between atoms: _425  and  _426
REMARK  179  A    between atoms: _425  and  _428
REMARK  180  A    between atoms: _428  and  _429
REMARK  181  A    between atoms: _432  and  _434
REMARK  182  A    between atoms: _434  and  _435
REMARK  183  A    between atoms: _434  and  _437
REMARK  184  A    between atoms: _437  and  _438
REMARK  185  A    between atoms: _441  and  _443
REMARK  186  A    between atoms: _443  and  _444
REMARK  187  A    between atoms: _443  and  _446
REMARK  188  A    between atoms: _446  and  _447
REMARK  189  A    between atoms: _450  and  _452
REMARK  190  A    between atoms: _452  and  _453
REMARK  191  A    between atoms: _452  and  _455
REMARK  192  A    between atoms: _455  and  _456
REMARK  193  A    between atoms: _462  and  _464
REMARK  194  A    between atoms: _464  and  _465
REMARK  195  A    between atoms: _464  and  _467
REMARK  196  A    between atoms: _467  and  _468
REMARK  197  A    between atoms: _474  and  _476
REMARK  198  A    between atoms: _476  and  _477
REMARK  199  A    between atoms: _476  and  _479
REMARK  200  A    between atoms: _479  and  _480
REMARK  201  A    between atoms: _480  and  _481
REMARK  202  A    between atoms: _483  and  _485
REMARK  203  A    between atoms: _485  and  _486
REMARK  204  A    between atoms: _485  and  _488
REMARK  205  A    between atoms: _488  and  _489
REMARK  206  A    between atoms: _489  and  _490
REMARK  207  A    between atoms: _490  and  _491
REMARK  208  A    between atoms: _491  and  _492
REMARK  209  A    between atoms: _496  and  _498
REMARK  210  A    between atoms: _498  and  _499
REMARK  211  A    between atoms: _498  and  _501
REMARK  212  A    between atoms: _501  and  _502
REMARK  213  A    between atoms: _508  and  _510
REMARK  214  A    between atoms: _510  and  _511
REMARK  215  A    between atoms: _510  and  _513
REMARK  216  A    between atoms: _513  and  _514
REMARK  217  A    between atoms: _517  and  _519
REMARK  218  A    between atoms: _519  and  _520
REMARK  219  A    between atoms: _519  and  _522
REMARK  220  A    between atoms: _522  and  _523
REMARK  221  A    between atoms: _526  and  _528
REMARK  222  A    between atoms: _528  and  _529
REMARK  223  A    between atoms: _528  and  _531
REMARK  224  A    between atoms: _534  and  _536
REMARK  225  A    between atoms: _536  and  _537
REMARK  226  A    between atoms: _536  and  _539
REMARK  227  A    between atoms: _539  and  _540
REMARK  228  A    between atoms: _545  and  _547
REMARK  229  A    between atoms: _547  and  _548
REMARK  230  A    between atoms: _547  and  _550
REMARK  231  A    between atoms: _553  and  _555
REMARK  232  A    between atoms: _555  and  _556
REMARK  233  A    between atoms: _555  and  _558
REMARK  234  A    between atoms: _558  and  _559
REMARK  235  A    between atoms: _562  and  _564
REMARK  236  A    between atoms: _564  and  _565
REMARK  237  A    between atoms: _564  and  _567
REMARK  238  A    between atoms: _567  and  _568
REMARK  239  A    between atoms: _571  and  _573
REMARK  240  A    between atoms: _573  and  _574
REMARK  241  A    between atoms: _573  and  _576
REMARK  242  A    between atoms: _576  and  _577
REMARK  243  A    between atoms: _580  and  _582
REMARK  244  A    between atoms: _582  and  _583
REMARK  245  A    between atoms: _582  and  _585
REMARK  246  A    between atoms: _585  and  _586
REMARK  247  A    between atoms: _586  and  _587
REMARK  248  A    between atoms: _589  and  _591
REMARK  249  A    between atoms: _591  and  _592
REMARK  250  A    between atoms: _591  and  _594
REMARK  251  A    between atoms: _594  and  _595
REMARK  252  A    between atoms: _597  and  _599
REMARK  253  A    between atoms: _599  and  _600
REMARK  254  A    between atoms: _599  and  _602
REMARK  255  A    between atoms: _602  and  _603
REMARK  256  A    between atoms: _606  and  _608
REMARK  257  A    between atoms: _608  and  _609
REMARK  258  A    between atoms: _608  and  _611
REMARK  259  A    between atoms: _611  and  _612
REMARK  260  A    between atoms: _617  and  _619
REMARK  261  A    between atoms: _619  and  _620
REMARK  262  A    between atoms: _619  and  _622
REMARK  263  A    between atoms: _622  and  _623
REMARK  264  A    between atoms: _626  and  _628
REMARK  265  A    between atoms: _628  and  _629
REMARK  266  A    between atoms: _628  and  _631
REMARK  267  A    between atoms: _631  and  _632
REMARK  268  A    between atoms: _632  and  _633
REMARK  269  A    between atoms: _638  and  _640
REMARK  270  A    between atoms: _640  and  _641
REMARK  271  A    between atoms: _640  and  _643
REMARK  272  A    between atoms: _643  and  _644
REMARK  273  A    between atoms: _647  and  _649
REMARK  274  A    between atoms: _649  and  _650
REMARK  275  A    between atoms: _649  and  _652
REMARK  276  A    between atoms: _652  and  _653
REMARK  277  A    between atoms: _658  and  _659
REMARK                            x       y       z     vdW  Elec       q    Type
REMARK                         _______ _______ _______ _____ _____    ______ ____
ROOT
ATOM      1  CA  ILE A   1       7.460   4.607  21.287  0.00  0.00    +0.133 C 
ENDROOT
BRANCH   1   2
ATOM      2  N   ILE A   1       7.181   3.301  20.719  0.00  0.00    -0.239 NA
ATOM      3  H   ILE A   1       6.654   3.242  19.824  0.00  0.00    +0.142 HD
ENDBRANCH   1   2
BRANCH   1   4
ATOM      4  C   ILE A   1       6.898   4.719  22.699  0.00  0.00    +0.224 C 
ATOM      5  O   ILE A   1       7.529   5.306  23.582  0.00  0.00    -0.287 OA
ENDBRANCH   1   4
BRANCH   1   6
ATOM      6  CB  ILE A   1       6.880   5.694  20.372  0.00  0.00    +0.023 C 
ATOM      7  CG2 ILE A   1       6.636   6.980  21.142  0.00  0.00    +0.002 C 
BRANCH   6   8
ATOM      8  CG1 ILE A   1       7.821   5.882  19.181  0.00  0.00    +0.002 C 
ATOM      9  CD1 ILE A   1       7.300   6.888  18.163  0.00  0.00    +0.000 C 
ENDBRANCH   6   8
ENDBRANCH   1   6
TORSDOF 4
REMARK  Name = ../refined-set-2016/2i4z/2i4z_pocket.pdb
REMARK  277 active torsions:
REMARK  status: ('A' for Active; 'I' for Inactive)
REMARK    1  A    between atoms: _1  and  _3
REMARK    2  A    between atoms: _3  and  _4
REMARK    3  A    between atoms: _3  and  _6
REMARK    4  A    between atoms: _6  and  _7
REMARK    5  A    between atoms: _12  and  _13
REMARK    6  A    between atoms: _15  and  _17
REMARK    7  A    between atoms: _17  and  _18
REMARK    8  A    between atoms: _17  and  _20
REMARK    9  A    between atoms: _20  and  _21
REMARK   10  A    between atoms: _23  and  _25
REMARK   11  A    between atoms: _25  and  _26
REMARK   12  A    between atoms: _25  and  _28
REMARK   13  A    between atoms: _28  and  _29
REMARK   14  A    between atoms: _36  and  _37
REMARK   15  A    between atoms: _42  and  _44
REMARK   16  A    between atoms: _44  and  _45
REMARK   17  A    between atoms: _44  and  _47
REMARK   18  A    between atoms: _47  and  _48
REMARK   19  A    between atoms: _51  and  _53
REMARK   20  A    between atoms: _53  and  _54
REMARK   21  A    between atoms: _53  and  _56
REMARK   22  A    between atoms: _56  and  _57
REMARK   23  A    between atoms: _63  and  _65
REMARK   24  A    between atoms: _65  and  _66
REMARK   25  A    between atoms: _65  and  _68
REMARK   26  A    between atoms: _68  and  _69
REMARK   27  A    between atoms: _72  and  _74
REMARK   28  A    between atoms: _74  and  _75
REMARK   29  A    between atoms: _74  and  _77
REMARK   30  A    between atoms: _77  and  _78
REMARK   31  A    between atoms: _81  and  _83
REMARK   32  A    between atoms: _83  and  _84
REMARK   33  A    between atoms: _83  and  _86
REMARK   34  A    between atoms: _86  and  _87
REMARK   35  A    between atoms: _93  and  _95
REMARK   36  A    between atoms: _95  and  _96
REMARK   37  A    between atoms: _95  and  _98
REMARK   38  A    between atoms: _98  and  _99
REMARK   39  A    between atoms: _99  and  _100
REMARK   40  A    between atoms: _105  and  _107
REMARK   41  A    between atoms: _107  and  _108
REMARK   42  A    between atoms: _110  and  _112
REMARK   43  A    between atoms: _112  and  _113
REMARK   44  A    between atoms: _112  and  _115
REMARK   45  A    between atoms: _117  and  _119
REMARK   46  A    between atoms: _119  and  _120
REMARK   47  A    between atoms: _119  and  _122
REMARK   48  A    between atoms: _122  and  _123
REMARK   49  A    between atoms: _123  and  _124
REMARK   50  A    between atoms: _129  and  _131
REMARK   51  A    between atoms: _131  and  _132
REMARK   52  A    between atoms: _131  and  _134
REMARK   53  A    between atoms: _134  and  _135
REMARK   54  A    between atoms: _141  and  _143
REMARK   55  A    between atoms: _143  and  _144
REMARK   56  A    between atoms: _143  and  _146
REMARK   57  A    between atoms: _146  and  _147
REMARK   58  A    between atoms: _147  and  _148
REMARK   59  A    between atoms: _148  and  _149
REMARK   60  A    between atoms: _158  and  _160
REMARK   61  A    between atoms: _160  and  _161
REMARK   62  A    between atoms: _160  and  _163
REMARK   63  A    between atoms: _163  and  _164
REMARK   64  A    between atoms: _166  and  _168
REMARK   65  A    between atoms: _168  and  _169
REMARK   66  A    between atoms: _168  and  _171
REMARK   67  A    between atoms: _174  and  _176
REMARK   68  A    between atoms: _176  and  _177
REMARK   69  A    between atoms: _176  and  _179
REMARK   70  A    between atoms: _179  and  _180
REMARK   71  A    between atoms: _180  and  _181
REMARK   72  A    between atoms: _184  and  _186
REMARK   73  A    between atoms: _186  and  _187
REMARK   74  A    between atoms: _190  and  _192
REMARK   75  A    between atoms: _192  and  _193
REMARK   76  A    between atoms: _192  and  _195
REMARK   77  A    between atoms: _198  and  _200
REMARK   78  A    between atoms: _200  and  _201
REMARK   79  A    between atoms: _200  and  _203
REMARK   80  A    between atoms: _203  and  _204
REMARK   81  A    between atoms: _204  and  _205
REMARK   82  A    between atoms: _210  and  _212
REMARK   83  A    between atoms: _212  and  _213
REMARK   84  A    between atoms: _212  and  _215
REMARK   85  A    between atoms: _215  and  _216
REMARK   86  A    between atoms: _216  and  _217
REMARK   87  A    between atoms: _220  and  _222
REMARK   88  A    between atoms: _222  and  _223
REMARK   89  A    between atoms: _222  and  _225
REMARK   90  A    between atoms: _225  and  _226
REMARK   91  A    between atoms: _229  and  _231
REMARK   92  A    between atoms: _231  and  _232
REMARK   93  A    between atoms: _231  and  _234
REMARK   94  A    between atoms: _234  and  _235
REMARK   95  A    between atoms: _238  and  _240
REMARK   96  A    between atoms: _240  and  _241
REMARK   97  A    between atoms: _240  and  _243
REMARK   98  A    between atoms: _246  and  _248
REMARK   99  A    between atoms: _248  and  _249
REMARK  100  A    between atoms: _248  and  _251
REMARK  101  A    between atoms: _251  and  _252
REMARK  102  A    between atoms: _257  and  _259
REMARK  103  A    between atoms: _259  and  _260
REMARK  104  A    between atoms: _259  and  _262
REMARK  105  A    between atoms: _262  and  _263
REMARK  106  A    between atoms: _263  and  _264
REMARK  107  A    between atoms: _267  and  _269
REMARK  108  A    between atoms: _269  and  _270
REMARK  109  A    between atoms: _269  and  _272
REMARK  110  A    between atoms: _272  and  _273
REMARK  111  A    between atoms: _276  and  _278
REMARK  112  A    between atoms: _278  and  _279
REMARK  113  A    between atoms: _278  and  _281
REMARK  114  A    between atoms: _281  and  _282
REMARK  115  A    between atoms: _285  and  _287
REMARK  116  A    between atoms: _287  and  _288
REMARK  117  A    between atoms: _287  and  _290
REMARK  118  A    between atoms: _290  and  _291
REMARK  119  A    between atoms: _296  and  _297
REMARK  120  A    between atoms: _299  and  _301
REMARK  121  A    between atoms: _301  and  _302
REMARK  122  A    between atoms: _301  and  _304
REMARK  123  A    between atoms: _304  and  _305
REMARK  124  A    between atoms: _308  and  _310
REMARK  125  A    between atoms: _310  and  _311
REMARK  126  A    between atoms: _310  and  _313
REMARK  127  A    between atoms: _313  and  _314
REMARK  128  A    between atoms: _314  and  _315
REMARK  129  A    between atoms: _317  and  _319
REMARK  130  A    between atoms: _319  and  _320
REMARK  131  A    between atoms: _319  and  _322
REMARK  132  A    between atoms: _322  and  _323
REMARK  133  A    between atoms: _326  and  _328
REMARK  134  A    between atoms: _328  and  _329
REMARK  135  A    between atoms: _332  and  _334
REMARK  136  A    between atoms: _334  and  _335
REMARK  137  A    between atoms: _334  and  _337
REMARK  138  A    between atoms: _337  and  _338
REMARK  139  A    between atoms: _340  and  _342
REMARK  140  A    between atoms: _342  and  _343
REMARK  141  A    between atoms: _342  and  _345
REMARK  142  A    between atoms: _345  and  _346
REMARK  143  A    between atoms: _349  and  _351
REMARK  144  A    between atoms: _351  and  _352
REMARK  145  A    between atoms: _351  and  _354
REMARK  146  A    between atoms: _354  and  _355
REMARK  147  A    between atoms: _355  and  _356
REMARK  148  A    between atoms: _358  and  _360
REMARK  149  A    between atoms: _360  and  _361
REMARK  150  A    between atoms: _360  and  _363
REMARK  151  A    between atoms: _366  and  _368
REMARK  152  A    between atoms: _368  and  _369
REMARK  153  A    between atoms: _368  and  _371
REMARK  154  A    between atoms: _371  and  _372
REMARK  155  A    between atoms: _375  and  _377
REMARK  156  A    between atoms: _377  and  _378
REMARK  157  A    between atoms: _377  and  _380
REMARK  158  A    between atoms: _380  and  _381
REMARK  159  A    between atoms: _384  and  _386
REMARK  160  A    between atoms: _386  and  _387
REMARK  161  A    between atoms: _386  and  _389
REMARK  162  A    between atoms: _389  and  _390
REMARK  163  A    between atoms: _392  and  _394
REMARK  164  A    between atoms: _394  and  _395
REMARK  165  A    between atoms: _394  and  _397
REMARK  166  A    between atoms: _397  and  _398
REMARK  167  A    between atoms: _398  and  _399
REMARK  168  A    between atoms: _402  and  _404
REMARK  169  A    between atoms: _404  and  _405
REMARK  170  A    between atoms: _404  and  _407
REMARK  171  A    between atoms: _407  and  _408
REMARK  172  A    between atoms: _414  and  _416
REMARK  173  A    between atoms: _416  and  _417
REMARK  174  A    between atoms: _416  and  _419
REMARK  175  A    between atoms: _419  and  _420
REMARK  176  A    between atoms: _420  and  _421
REMARK  177  A    between atoms: _423  and  _425
REMARK  178  A    between atoms: _425  and  _426
REMARK  179  A    between atoms: _425  and  _428
REMARK  180  A    between atoms: _428  and  _429
REMARK  181  A    between atoms: _432  and  _434
REMARK  182  A    between atoms: _434  and  _435
REMARK  183  A    between atoms: _434  and  _437
REMARK  184  A    between atoms: _437  and  _438
REMARK  185  A    between atoms: _441  and  _443
REMARK  186  A    between atoms: _443  and  _444
REMARK  187  A    between atoms: _443  and  _446
REMARK  188  A    between atoms: _446  and  _447
REMARK  189  A    between atoms: _450  and  _452
REMARK  190  A    between atoms: _452  and  _453
REMARK  191  A    between atoms: _452  and  _455
REMARK  192  A    between atoms: _455  and  _456
REMARK  193  A    between atoms: _462  and  _464
REMARK  194  A    between atoms: _464  and  _465
REMARK  195  A    between atoms: _464  and  _467
REMARK  196  A    between atoms: _467  and  _468
REMARK  197  A    between atoms: _474  and  _476
REMARK  198  A    between atoms: _476  and  _477
REMARK  199  A    between atoms: _476  and  _479
REMARK  200  A    between atoms: _479  and  _480
REMARK  201  A    between atoms: _480  and  _481
REMARK  202  A    between atoms: _483  and  _485
REMARK  203  A    between atoms: _485  and  _486
REMARK  204  A    between atoms: _485  and  _488
REMARK  205  A    between atoms: _488  and  _489
REMARK  206  A    between atoms: _489  and  _490
REMARK  207  A    between atoms: _490  and  _491
REMARK  208  A    between atoms: _491  and  _492
REMARK  209  A    between atoms: _496  and  _498
REMARK  210  A    between atoms: _498  and  _499
REMARK  211  A    between atoms: _498  and  _501
REMARK  212  A    between atoms: _501  and  _502
REMARK  213  A    between atoms: _508  and  _510
REMARK  214  A    between atoms: _510  and  _511
REMARK  215  A    between atoms: _510  and  _513
REMARK  216  A    between atoms: _513  and  _514
REMARK  217  A    between atoms: _517  and  _519
REMARK  218  A    between atoms: _519  and  _520
REMARK  219  A    between atoms: _519  and  _522
REMARK  220  A    between atoms: _522  and  _523
REMARK  221  A    between atoms: _526  and  _528
REMARK  222  A    between atoms: _528  and  _529
REMARK  223  A    between atoms: _528  and  _531
REMARK  224  A    between atoms: _534  and  _536
REMARK  225  A    between atoms: _536  and  _537
REMARK  226  A    between atoms: _536  and  _539
REMARK  227  A    between atoms: _539  and  _540
REMARK  228  A    between atoms: _545  and  _547
REMARK  229  A    between atoms: _547  and  _548
REMARK  230  A    between atoms: _547  and  _550
REMARK  231  A    between atoms: _553  and  _555
REMARK  232  A    between atoms: _555  and  _556
REMARK  233  A    between atoms: _555  and  _558
REMARK  234  A    between atoms: _558  and  _559
REMARK  235  A    between atoms: _562  and  _564
REMARK  236  A    between atoms: _564  and  _565
REMARK  237  A    between atoms: _564  and  _567
REMARK  238  A    between atoms: _567  and  _568
REMARK  239  A    between atoms: _571  and  _573
REMARK  240  A    between atoms: _573  and  _574
REMARK  241  A    between atoms: _573  and  _576
REMARK  242  A    between atoms: _576  and  _577
REMARK  243  A    between atoms: _580  and  _582
REMARK  244  A    between atoms: _582  and  _583
REMARK  245  A    between atoms: _582  and  _585
REMARK  246  A    between atoms: _585  and  _586
REMARK  247  A    between atoms: _586  and  _587
REMARK  248  A    between atoms: _589  and  _591
REMARK  249  A    between atoms: _591  and  _592
REMARK  250  A    between atoms: _591  and  _594
REMARK  251  A    between atoms: _594  and  _595
REMARK  252  A    between atoms: _597  and  _599
REMARK  253  A    between atoms: _599  and  _600
REMARK  254  A    between atoms: _599  and  _602
REMARK  255  A    between atoms: _602  and  _603
REMARK  256  A    between atoms: _606  and  _608
REMARK  257  A    between atoms: _608  and  _609
REMARK  258  A    between atoms: _608  and  _611
REMARK  259  A    between atoms: _611  and  _612
REMARK  260  A    between atoms: _617  and  _619
REMARK  261  A    between atoms: _619  and  _620
REMARK  262  A    between atoms: _619  and  _622
REMARK  263  A    between atoms: _622  and  _623
REMARK  264  A    between atoms: _626  and  _628
REMARK  265  A    between atoms: _628  and  _629
REMARK  266  A    between atoms: _628  and  _631
REMARK  267  A    between atoms: _631  and  _632
REMARK  268  A    between atoms: _632  and  _633
REMARK  269  A    between atoms: _638  and  _640
REMARK  270  A    between atoms: _640  and  _641
REMARK  271  A    between atoms: _640  and  _643
REMARK  272  A    between atoms: _643  and  _644
REMARK  273  A    between atoms: _647  and  _649
REMARK  274  A    between atoms: _649  and  _650
REMARK  275  A    between atoms: _649  and  _652
REMARK  276  A    between atoms: _652  and  _653
REMARK  277  A    between atoms: _658  and  _659
REMARK                            x       y       z     vdW  Elec       q    Type
REMARK                         _______ _______ _______ _____ _____    ______ ____
ROOT
ATOM      1  C   ILE A   1      23.040   8.628  20.830  0.00  0.00    +0.238 C 
ATOM      2  N   VAL A   2      22.174   8.508  21.832  0.00  0.00    -0.298 N 
ATOM      3  H   VAL A   2      21.639   7.622  21.936  0.00  0.00    +0.150 HD
ATOM      4  O   ILE A   1      23.729   9.637  20.650  0.00  0.00    -0.274 OA
ENDROOT
BRANCH   1   5
ATOM      5  CA  ILE A   1      23.161   7.421  19.902  0.00  0.00    +0.145 C 
BRANCH   5   6
ATOM      6  N   ILE A   1      23.293   6.228  20.726  0.00  0.00    -0.238 NA
ATOM      7  H   ILE A   1      22.576   5.477  20.662  0.00  0.00    +0.142 HD
ENDBRANCH   5   6
BRANCH   5   8
ATOM      8  CB  ILE A   1      21.902   7.361  19.003  0.00  0.00    +0.025 C 
ATOM      9  CG2 ILE A   1      21.725   8.679  18.248  0.00  0.00    +0.002 C 
BRANCH   8  10
ATOM     10  CG1 ILE A   1      22.029   6.216  18.001  0.00  0.00    +0.002 C 
ATOM     11  CD1 ILE A   1      23.177   6.373  17.040  0.00  0.00    +0.000 C 
ENDBRANCH   8  10
ENDBRANCH   5   8
ENDBRANCH   1   5
BRANCH   2  12
ATOM     12  CA  VAL A   2      21.955   9.588  22.789  0.00  0.00    +0.137 C 
BRANCH  12  13
ATOM     13  CB  VAL A   2      20.905   9.200  23.842  0.00  0.00    +0.026 C 
ATOM     14  CG2 VAL A   2      20.743  10.316  24.862  0.00  0.00    +0.002 C 
ATOM     15  CG1 VAL A   2      19.589   8.922  23.172  0.00  0.00    +0.002 C 
ENDBRANCH  12  13
BRANCH  12  16
ATOM     16  C   VAL A   2      23.238   9.975  23.514  0.00  0.00    +0.227 C 
ATOM     17  O   VAL A   2      23.660  11.134  23.488  0.00  0.00    -0.286 OA
ENDBRANCH  12  16
ENDBRANCH   2  12
TORSDOF 7
REMARK  Name = ../refined-set-2016/2i4z/2i4z_pocket.pdb
REMARK  277 active torsions:
REMARK  status: ('A' for Active; 'I' for Inactive)
REMARK    1  A    between atoms: _1  and  _3
REMARK    2  A    between atoms: _3  and  _4
REMARK    3  A    between atoms: _3  and  _6
REMARK    4  A    between atoms: _6  and  _7
REMARK    5  A    between atoms: _12  and  _13
REMARK    6  A    between atoms: _15  and  _17
REMARK    7  A    between atoms: _17  and  _18
REMARK    8  A    between atoms: _17  and  _20
REMARK    9  A    between atoms: _20  and  _21
REMARK   10  A    between atoms: _23  and  _25
REMARK   11  A    between atoms: _25  and  _26
REMARK   12  A    between atoms: _25  and  _28
REMARK   13  A    between atoms: _28  and  _29
REMARK   14  A    between atoms: _36  and  _37
REMARK   15  A    between atoms: _42  and  _44
REMARK   16  A    between atoms: _44  and  _45
REMARK   17  A    between atoms: _44  and  _47
REMARK   18  A    between atoms: _47  and  _48
REMARK   19  A    between atoms: _51  and  _53
REMARK   20  A    between atoms: _53  and  _54
REMARK   21  A    between atoms: _53  and  _56
REMARK   22  A    between atoms: _56  and  _57
REMARK   23  A    between atoms: _63  and  _65
REMARK   24  A    between atoms: _65  and  _66
REMARK   25  A    between atoms: _65  and  _68
REMARK   26  A    between atoms: _68  and  _69
REMARK   27  A    between atoms: _72  and  _74
REMARK   28  A    between atoms: _74  and  _75
REMARK   29  A    between atoms: _74  and  _77
REMARK   30  A    between atoms: _77  and  _78
REMARK   31  A    between atoms: _81  and  _83
REMARK   32  A    between atoms: _83  and  _84
REMARK   33  A    between atoms: _83  and  _86
REMARK   34  A    between atoms: _86  and  _87
REMARK   35  A    between atoms: _93  and  _95
REMARK   36  A    between atoms: _95  and  _96
REMARK   37  A    between atoms: _95  and  _98
REMARK   38  A    between atoms: _98  and  _99
REMARK   39  A    between atoms: _99  and  _100
REMARK   40  A    between atoms: _105  and  _107
REMARK   41  A    between atoms: _107  and  _108
REMARK   42  A    between atoms: _110  and  _112
REMARK   43  A    between atoms: _112  and  _113
REMARK   44  A    between atoms: _112  and  _115
REMARK   45  A    between atoms: _117  and  _119
REMARK   46  A    between atoms: _119  and  _120
REMARK   47  A    between atoms: _119  and  _122
REMARK   48  A    between atoms: _122  and  _123
REMARK   49  A    between atoms: _123  and  _124
REMARK   50  A    between atoms: _129  and  _131
REMARK   51  A    between atoms: _131  and  _132
REMARK   52  A    between atoms: _131  and  _134
REMARK   53  A    between atoms: _134  and  _135
REMARK   54  A    between atoms: _141  and  _143
REMARK   55  A    between atoms: _143  and  _144
REMARK   56  A    between atoms: _143  and  _146
REMARK   57  A    between atoms: _146  and  _147
REMARK   58  A    between atoms: _147  and  _148
REMARK   59  A    between atoms: _148  and  _149
REMARK   60  A    between atoms: _158  and  _160
REMARK   61  A    between atoms: _160  and  _161
REMARK   62  A    between atoms: _160  and  _163
REMARK   63  A    between atoms: _163  and  _164
REMARK   64  A    between atoms: _166  and  _168
REMARK   65  A    between atoms: _168  and  _169
REMARK   66  A    between atoms: _168  and  _171
REMARK   67  A    between atoms: _174  and  _176
REMARK   68  A    between atoms: _176  and  _177
REMARK   69  A    between atoms: _176  and  _179
REMARK   70  A    between atoms: _179  and  _180
REMARK   71  A    between atoms: _180  and  _181
REMARK   72  A    between atoms: _184  and  _186
REMARK   73  A    between atoms: _186  and  _187
REMARK   74  A    between atoms: _190  and  _192
REMARK   75  A    between atoms: _192  and  _193
REMARK   76  A    between atoms: _192  and  _195
REMARK   77  A    between atoms: _198  and  _200
REMARK   78  A    between atoms: _200  and  _201
REMARK   79  A    between atoms: _200  and  _203
REMARK   80  A    between atoms: _203  and  _204
REMARK   81  A    between atoms: _204  and  _205
REMARK   82  A    between atoms: _210  and  _212
REMARK   83  A    between atoms: _212  and  _213
REMARK   84  A    between atoms: _212  and  _215
REMARK   85  A    between atoms: _215  and  _216
REMARK   86  A    between atoms: _216  and  _217
REMARK   87  A    between atoms: _220  and  _222
REMARK   88  A    between atoms: _222  and  _223
REMARK   89  A    between atoms: _222  and  _225
REMARK   90  A    between atoms: _225  and  _226
REMARK   91  A    between atoms: _229  and  _231
REMARK   92  A    between atoms: _231  and  _232
REMARK   93  A    between atoms: _231  and  _234
REMARK   94  A    between atoms: _234  and  _235
REMARK   95  A    between atoms: _238  and  _240
REMARK   96  A    between atoms: _240  and  _241
REMARK   97  A    between atoms: _240  and  _243
REMARK   98  A    between atoms: _246  and  _248
REMARK   99  A    between atoms: _248  and  _249
REMARK  100  A    between atoms: _248  and  _251
REMARK  101  A    between atoms: _251  and  _252
REMARK  102  A    between atoms: _257  and  _259
REMARK  103  A    between atoms: _259  and  _260
REMARK  104  A    between atoms: _259  and  _262
REMARK  105  A    between atoms: _262  and  _263
REMARK  106  A    between atoms: _263  and  _264
REMARK  107  A    between atoms: _267  and  _269
REMARK  108  A    between atoms: _269  and  _270
REMARK  109  A    between atoms: _269  and  _272
REMARK  110  A    between atoms: _272  and  _273
REMARK  111  A    between atoms: _276  and  _278
REMARK  112  A    between atoms: _278  and  _279
REMARK  113  A    between atoms: _278  and  _281
REMARK  114  A    between atoms: _281  and  _282
REMARK  115  A    between atoms: _285  and  _287
REMARK  116  A    between atoms: _287  and  _288
REMARK  117  A    between atoms: _287  and  _290
REMARK  118  A    between atoms: _290  and  _291
REMARK  119  A    between atoms: _296  and  _297
REMARK  120  A    between atoms: _299  and  _301
REMARK  121  A    between atoms: _301  and  _302
REMARK  122  A    between atoms: _301  and  _304
REMARK  123  A    between atoms: _304  and  _305
REMARK  124  A    between atoms: _308  and  _310
REMARK  125  A    between atoms: _310  and  _311
REMARK  126  A    between atoms: _310  and  _313
REMARK  127  A    between atoms: _313  and  _314
REMARK  128  A    between atoms: _314  and  _315
REMARK  129  A    between atoms: _317  and  _319
REMARK  130  A    between atoms: _319  and  _320
REMARK  131  A    between atoms: _319  and  _322
REMARK  132  A    between atoms: _322  and  _323
REMARK  133  A    between atoms: _326  and  _328
REMARK  134  A    between atoms: _328  and  _329
REMARK  135  A    between atoms: _332  and  _334
REMARK  136  A    between atoms: _334  and  _335
REMARK  137  A    between atoms: _334  and  _337
REMARK  138  A    between atoms: _337  and  _338
REMARK  139  A    between atoms: _340  and  _342
REMARK  140  A    between atoms: _342  and  _343
REMARK  141  A    between atoms: _342  and  _345
REMARK  142  A    between atoms: _345  and  _346
REMARK  143  A    between atoms: _349  and  _351
REMARK  144  A    between atoms: _351  and  _352
REMARK  145  A    between atoms: _351  and  _354
REMARK  146  A    between atoms: _354  and  _355
REMARK  147  A    between atoms: _355  and  _356
REMARK  148  A    between atoms: _358  and  _360
REMARK  149  A    between atoms: _360  and  _361
REMARK  150  A    between atoms: _360  and  _363
REMARK  151  A    between atoms: _366  and  _368
REMARK  152  A    between atoms: _368  and  _369
REMARK  153  A    between atoms: _368  and  _371
REMARK  154  A    between atoms: _371  and  _372
REMARK  155  A    between atoms: _375  and  _377
REMARK  156  A    between atoms: _377  and  _378
REMARK  157  A    between atoms: _377  and  _380
REMARK  158  A    between atoms: _380  and  _381
REMARK  159  A    between atoms: _384  and  _386
REMARK  160  A    between atoms: _386  and  _387
REMARK  161  A    between atoms: _386  and  _389
REMARK  162  A    between atoms: _389  and  _390
REMARK  163  A    between atoms: _392  and  _394
REMARK  164  A    between atoms: _394  and  _395
REMARK  165  A    between atoms: _394  and  _397
REMARK  166  A    between atoms: _397  and  _398
REMARK  167  A    between atoms: _398  and  _399
REMARK  168  A    between atoms: _402  and  _404
REMARK  169  A    between atoms: _404  and  _405
REMARK  170  A    between atoms: _404  and  _407
REMARK  171  A    between atoms: _407  and  _408
REMARK  172  A    between atoms: _414  and  _416
REMARK  173  A    between atoms: _416  and  _417
REMARK  174  A    between atoms: _416  and  _419
REMARK  175  A    between atoms: _419  and  _420
REMARK  176  A    between atoms: _420  and  _421
REMARK  177  A    between atoms: _423  and  _425
REMARK  178  A    between atoms: _425  and  _426
REMARK  179  A    between atoms: _425  and  _428
REMARK  180  A    between atoms: _428  and  _429
REMARK  181  A    between atoms: _432  and  _434
REMARK  182  A    between atoms: _434  and  _435
REMARK  183  A    between atoms: _434  and  _437
REMARK  184  A    between atoms: _437  and  _438
REMARK  185  A    between atoms: _441  and  _443
REMARK  186  A    between atoms: _443  and  _444
REMARK  187  A    between atoms: _443  and  _446
REMARK  188  A    between atoms: _446  and  _447
REMARK  189  A    between atoms: _450  and  _452
REMARK  190  A    between atoms: _452  and  _453
REMARK  191  A    between atoms: _452  and  _455
REMARK  192  A    between atoms: _455  and  _456
REMARK  193  A    between atoms: _462  and  _464
REMARK  194  A    between atoms: _464  and  _465
REMARK  195  A    between atoms: _464  and  _467
REMARK  196  A    between atoms: _467  and  _468
REMARK  197  A    between atoms: _474  and  _476
REMARK  198  A    between atoms: _476  and  _477
REMARK  199  A    between atoms: _476  and  _479
REMARK  200  A    between atoms: _479  and  _480
REMARK  201  A    between atoms: _480  and  _481
REMARK  202  A    between atoms: _483  and  _485
REMARK  203  A    between atoms: _485  and  _486
REMARK  204  A    between atoms: _485  and  _488
REMARK  205  A    between atoms: _488  and  _489
REMARK  206  A    between atoms: _489  and  _490
REMARK  207  A    between atoms: _490  and  _491
REMARK  208  A    between atoms: _491  and  _492
REMARK  209  A    between atoms: _496  and  _498
REMARK  210  A    between atoms: _498  and  _499
REMARK  211  A    between atoms: _498  and  _501
REMARK  212  A    between atoms: _501  and  _502
REMARK  213  A    between atoms: _508  and  _510
REMARK  214  A    between atoms: _510  and  _511
REMARK  215  A    between atoms: _510  and  _513
REMARK  216  A    between atoms: _513  and  _514
REMARK  217  A    between atoms: _517  and  _519
REMARK  218  A    between atoms: _519  and  _520
REMARK  219  A    between atoms: _519  and  _522
REMARK  220  A    between atoms: _522  and  _523
REMARK  221  A    between atoms: _526  and  _528
REMARK  222  A    between atoms: _528  and  _529
REMARK  223  A    between atoms: _528  and  _531
REMARK  224  A    between atoms: _534  and  _536
REMARK  225  A    between atoms: _536  and  _537
REMARK  226  A    between atoms: _536  and  _539
REMARK  227  A    between atoms: _539  and  _540
REMARK  228  A    between atoms: _545  and  _547
REMARK  229  A    between atoms: _547  and  _548
REMARK  230  A    between atoms: _547  and  _550
REMARK  231  A    between atoms: _553  and  _555
REMARK  232  A    between atoms: _555  and  _556
REMARK  233  A    between atoms: _555  and  _558
REMARK  234  A    between atoms: _558  and  _559
REMARK  235  A    between atoms: _562  and  _564
REMARK  236  A    between atoms: _564  and  _565
REMARK  237  A    between atoms: _564  and  _567
REMARK  238  A    between atoms: _567  and  _568
REMARK  239  A    between atoms: _571  and  _573
REMARK  240  A    between atoms: _573  and  _574
REMARK  241  A    between atoms: _573  and  _576
REMARK  242  A    between atoms: _576  and  _577
REMARK  243  A    between atoms: _580  and  _582
REMARK  244  A    between atoms: _582  and  _583
REMARK  245  A    between atoms: _582  and  _585
REMARK  246  A    between atoms: _585  and  _586
REMARK  247  A    between atoms: _586  and  _587
REMARK  248  A    between atoms: _589  and  _591
REMARK  249  A    between atoms: _591  and  _592
REMARK  250  A    between atoms: _591  and  _594
REMARK  251  A    between atoms: _594  and  _595
REMARK  252  A    between atoms: _597  and  _599
REMARK  253  A    between atoms: _599  and  _600
REMARK  254  A    between atoms: _599  and  _602
REMARK  255  A    between atoms: _602  and  _603
REMARK  256  A    between atoms: _606  and  _608
REMARK  257  A    between atoms: _608  and  _609
REMARK  258  A    between atoms: _608  and  _611
REMARK  259  A    between atoms: _611  and  _612
REMARK  260  A    between atoms: _617  and  _619
REMARK  261  A    between atoms: _619  and  _620
REMARK  262  A    between atoms: _619  and  _622
REMARK  263  A    between atoms: _622  and  _623
REMARK  264  A    between atoms: _626  and  _628
REMARK  265  A    between atoms: _628  and  _629
REMARK  266  A    between atoms: _628  and  _631
REMARK  267  A    between atoms: _631  and  _632
REMARK  268  A    between atoms: _632  and  _633
REMARK  269  A    between atoms: _638  and  _640
REMARK  270  A    between atoms: _640  and  _641
REMARK  271  A    between atoms: _640  and  _643
REMARK  272  A    between atoms: _643  and  _644
REMARK  273  A    between atoms: _647  and  _649
REMARK  274  A    between atoms: _649  and  _650
REMARK  275  A    between atoms: _649  and  _652
REMARK  276  A    between atoms: _652  and  _653
REMARK  277  A    between atoms: _658  and  _659
REMARK                            x       y       z     vdW  Elec       q    Type
REMARK                         _______ _______ _______ _____ _____    ______ ____
ROOT
ATOM      1  C   HIS A   1      25.478  13.918  21.882  0.00  0.00    +0.239 C 
ATOM      2  N   VAL A   2      25.264  13.480  23.116  0.00  0.00    -0.298 N 
ATOM      3  H   VAL A   2      24.875  12.525  23.249  0.00  0.00    +0.150 HD
ATOM      4  O   HIS A   1      25.923  15.039  21.630  0.00  0.00    -0.274 OA
ENDROOT
BRANCH   1   5
ATOM      5  CA  HIS A   1      25.135  12.925  20.771  0.00  0.00    +0.151 C 
BRANCH   5   6
ATOM      6  N   HIS A   1      25.603  11.610  21.180  0.00  0.00    -0.238 NA
ATOM      7  H   HIS A   1      24.910  10.843  21.298  0.00  0.00    +0.142 HD
ENDBRANCH   5   6
BRANCH   5   8
ATOM      8  CB  HIS A   1      23.618  12.903  20.555  0.00  0.00    +0.074 C 
BRANCH   8   9
ATOM      9  CG  HIS A   1      23.061  14.206  20.073  0.00  0.00    +0.082 A 
ATOM     10  CD2 HIS A   1      22.467  15.225  20.738  0.00  0.00    +0.115 A 
ATOM     11  NE2 HIS A   1      22.207  16.213  19.820  0.00  0.00    -0.221 NA
ATOM     12  CE1 HIS A   1      22.626  15.812  18.632  0.00  0.00    +0.199 A 
ATOM     13  ND1 HIS A   1      23.143  14.603  18.757  0.00  0.00    -0.227 NA
ENDBRANCH   8   9
ENDBRANCH   5   8
ENDBRANCH   1   5
BRANCH   2  14
ATOM     14  CA  VAL A   2      25.554  14.287  24.285  0.00  0.00    +0.137 C 
BRANCH  14  15
ATOM     15  CB  VAL A   2      25.165  13.520  25.572  0.00  0.00    +0.026 C 
ATOM     16  CG2 VAL A   2      26.036  13.956  26.752  0.00  0.00    +0.002 C 
ATOM     17  CG1 VAL A   2      23.708  13.778  25.881  0.00  0.00    +0.002 C 
ENDBRANCH  14  15
BRANCH  14  18
ATOM     18  C   VAL A   2      27.028  14.691  24.350  0.00  0.00    +0.227 C 
ATOM     19  O   VAL A   2      27.349  15.837  24.657  0.00  0.00    -0.286 OA
ENDBRANCH  14  18
ENDBRANCH   2  14
TORSDOF 7
REMARK  Name = ../refined-set-2016/2i4z/2i4z_pocket.pdb
REMARK  277 active torsions:
REMARK  status: ('A' for Active; 'I' for Inactive)
REMARK    1  A    between atoms: _1  and  _3
REMARK    2  A    between atoms: _3  and  _4
REMARK    3  A    between atoms: _3  and  _6
REMARK    4  A    between atoms: _6  and  _7
REMARK    5  A    between atoms: _12  and  _13
REMARK    6  A    between atoms: _15  and  _17
REMARK    7  A    between atoms: _17  and  _18
REMARK    8  A    between atoms: _17  and  _20
REMARK    9  A    between atoms: _20  and  _21
REMARK   10  A    between atoms: _23  and  _25
REMARK   11  A    between atoms: _25  and  _26
REMARK   12  A    between atoms: _25  and  _28
REMARK   13  A    between atoms: _28  and  _29
REMARK   14  A    between atoms: _36  and  _37
REMARK   15  A    between atoms: _42  and  _44
REMARK   16  A    between atoms: _44  and  _45
REMARK   17  A    between atoms: _44  and  _47
REMARK   18  A    between atoms: _47  and  _48
REMARK   19  A    between atoms: _51  and  _53
REMARK   20  A    between atoms: _53  and  _54
REMARK   21  A    between atoms: _53  and  _56
REMARK   22  A    between atoms: _56  and  _57
REMARK   23  A    between atoms: _63  and  _65
REMARK   24  A    between atoms: _65  and  _66
REMARK   25  A    between atoms: _65  and  _68
REMARK   26  A    between atoms: _68  and  _69
REMARK   27  A    between atoms: _72  and  _74
REMARK   28  A    between atoms: _74  and  _75
REMARK   29  A    between atoms: _74  and  _77
REMARK   30  A    between atoms: _77  and  _78
REMARK   31  A    between atoms: _81  and  _83
REMARK   32  A    between atoms: _83  and  _84
REMARK   33  A    between atoms: _83  and  _86
REMARK   34  A    between atoms: _86  and  _87
REMARK   35  A    between atoms: _93  and  _95
REMARK   36  A    between atoms: _95  and  _96
REMARK   37  A    between atoms: _95  and  _98
REMARK   38  A    between atoms: _98  and  _99
REMARK   39  A    between atoms: _99  and  _100
REMARK   40  A    between atoms: _105  and  _107
REMARK   41  A    between atoms: _107  and  _108
REMARK   42  A    between atoms: _110  and  _112
REMARK   43  A    between atoms: _112  and  _113
REMARK   44  A    between atoms: _112  and  _115
REMARK   45  A    between atoms: _117  and  _119
REMARK   46  A    between atoms: _119  and  _120
REMARK   47  A    between atoms: _119  and  _122
REMARK   48  A    between atoms: _122  and  _123
REMARK   49  A    between atoms: _123  and  _124
REMARK   50  A    between atoms: _129  and  _131
REMARK   51  A    between atoms: _131  and  _132
REMARK   52  A    between atoms: _131  and  _134
REMARK   53  A    between atoms: _134  and  _135
REMARK   54  A    between atoms: _141  and  _143
REMARK   55  A    between atoms: _143  and  _144
REMARK   56  A    between atoms: _143  and  _146
REMARK   57  A    between atoms: _146  and  _147
REMARK   58  A    between atoms: _147  and  _148
REMARK   59  A    between atoms: _148  and  _149
REMARK   60  A    between atoms: _158  and  _160
REMARK   61  A    between atoms: _160  and  _161
REMARK   62  A    between atoms: _160  and  _163
REMARK   63  A    between atoms: _163  and  _164
REMARK   64  A    between atoms: _166  and  _168
REMARK   65  A    between atoms: _168  and  _169
REMARK   66  A    between atoms: _168  and  _171
REMARK   67  A    between atoms: _174  and  _176
REMARK   68  A    between atoms: _176  and  _177
REMARK   69  A    between atoms: _176  and  _179
REMARK   70  A    between atoms: _179  and  _180
REMARK   71  A    between atoms: _180  and  _181
REMARK   72  A    between atoms: _184  and  _186
REMARK   73  A    between atoms: _186  and  _187
REMARK   74  A    between atoms: _190  and  _192
REMARK   75  A    between atoms: _192  and  _193
REMARK   76  A    between atoms: _192  and  _195
REMARK   77  A    between atoms: _198  and  _200
REMARK   78  A    between atoms: _200  and  _201
REMARK   79  A    between atoms: _200  and  _203
REMARK   80  A    between atoms: _203  and  _204
REMARK   81  A    between atoms: _204  and  _205
REMARK   82  A    between atoms: _210  and  _212
REMARK   83  A    between atoms: _212  and  _213
REMARK   84  A    between atoms: _212  and  _215
REMARK   85  A    between atoms: _215  and  _216
REMARK   86  A    between atoms: _216  and  _217
REMARK   87  A    between atoms: _220  and  _222
REMARK   88  A    between atoms: _222  and  _223
REMARK   89  A    between atoms: _222  and  _225
REMARK   90  A    between atoms: _225  and  _226
REMARK   91  A    between atoms: _229  and  _231
REMARK   92  A    between atoms: _231  and  _232
REMARK   93  A    between atoms: _231  and  _234
REMARK   94  A    between atoms: _234  and  _235
REMARK   95  A    between atoms: _238  and  _240
REMARK   96  A    between atoms: _240  and  _241
REMARK   97  A    between atoms: _240  and  _243
REMARK   98  A    between atoms: _246  and  _248
REMARK   99  A    between atoms: _248  and  _249
REMARK  100  A    between atoms: _248  and  _251
REMARK  101  A    between atoms: _251  and  _252
REMARK  102  A    between atoms: _257  and  _259
REMARK  103  A    between atoms: _259  and  _260
REMARK  104  A    between atoms: _259  and  _262
REMARK  105  A    between atoms: _262  and  _263
REMARK  106  A    between atoms: _263  and  _264
REMARK  107  A    between atoms: _267  and  _269
REMARK  108  A    between atoms: _269  and  _270
REMARK  109  A    between atoms: _269  and  _272
REMARK  110  A    between atoms: _272  and  _273
REMARK  111  A    between atoms: _276  and  _278
REMARK  112  A    between atoms: _278  and  _279
REMARK  113  A    between atoms: _278  and  _281
REMARK  114  A    between atoms: _281  and  _282
REMARK  115  A    between atoms: _285  and  _287
REMARK  116  A    between atoms: _287  and  _288
REMARK  117  A    between atoms: _287  and  _290
REMARK  118  A    between atoms: _290  and  _291
REMARK  119  A    between atoms: _296  and  _297
REMARK  120  A    between atoms: _299  and  _301
REMARK  121  A    between atoms: _301  and  _302
REMARK  122  A    between atoms: _301  and  _304
REMARK  123  A    between atoms: _304  and  _305
REMARK  124  A    between atoms: _308  and  _310
REMARK  125  A    between atoms: _310  and  _311
REMARK  126  A    between atoms: _310  and  _313
REMARK  127  A    between atoms: _313  and  _314
REMARK  128  A    between atoms: _314  and  _315
REMARK  129  A    between atoms: _317  and  _319
REMARK  130  A    between atoms: _319  and  _320
REMARK  131  A    between atoms: _319  and  _322
REMARK  132  A    between atoms: _322  and  _323
REMARK  133  A    between atoms: _326  and  _328
REMARK  134  A    between atoms: _328  and  _329
REMARK  135  A    between atoms: _332  and  _334
REMARK  136  A    between atoms: _334  and  _335
REMARK  137  A    between atoms: _334  and  _337
REMARK  138  A    between atoms: _337  and  _338
REMARK  139  A    between atoms: _340  and  _342
REMARK  140  A    between atoms: _342  and  _343
REMARK  141  A    between atoms: _342  and  _345
REMARK  142  A    between atoms: _345  and  _346
REMARK  143  A    between atoms: _349  and  _351
REMARK  144  A    between atoms: _351  and  _352
REMARK  145  A    between atoms: _351  and  _354
REMARK  146  A    between atoms: _354  and  _355
REMARK  147  A    between atoms: _355  and  _356
REMARK  148  A    between atoms: _358  and  _360
REMARK  149  A    between atoms: _360  and  _361
REMARK  150  A    between atoms: _360  and  _363
REMARK  151  A    between atoms: _366  and  _368
REMARK  152  A    between atoms: _368  and  _369
REMARK  153  A    between atoms: _368  and  _371
REMARK  154  A    between atoms: _371  and  _372
REMARK  155  A    between atoms: _375  and  _377
REMARK  156  A    between atoms: _377  and  _378
REMARK  157  A    between atoms: _377  and  _380
REMARK  158  A    between atoms: _380  and  _381
REMARK  159  A    between atoms: _384  and  _386
REMARK  160  A    between atoms: _386  and  _387
REMARK  161  A    between atoms: _386  and  _389
REMARK  162  A    between atoms: _389  and  _390
REMARK  163  A    between atoms: _392  and  _394
REMARK  164  A    between atoms: _394  and  _395
REMARK  165  A    between atoms: _394  and  _397
REMARK  166  A    between atoms: _397  and  _398
REMARK  167  A    between atoms: _398  and  _399
REMARK  168  A    between atoms: _402  and  _404
REMARK  169  A    between atoms: _404  and  _405
REMARK  170  A    between atoms: _404  and  _407
REMARK  171  A    between atoms: _407  and  _408
REMARK  172  A    between atoms: _414  and  _416
REMARK  173  A    between atoms: _416  and  _417
REMARK  174  A    between atoms: _416  and  _419
REMARK  175  A    between atoms: _419  and  _420
REMARK  176  A    between atoms: _420  and  _421
REMARK  177  A    between atoms: _423  and  _425
REMARK  178  A    between atoms: _425  and  _426
REMARK  179  A    between atoms: _425  and  _428
REMARK  180  A    between atoms: _428  and  _429
REMARK  181  A    between atoms: _432  and  _434
REMARK  182  A    between atoms: _434  and  _435
REMARK  183  A    between atoms: _434  and  _437
REMARK  184  A    between atoms: _437  and  _438
REMARK  185  A    between atoms: _441  and  _443
REMARK  186  A    between atoms: _443  and  _444
REMARK  187  A    between atoms: _443  and  _446
REMARK  188  A    between atoms: _446  and  _447
REMARK  189  A    between atoms: _450  and  _452
REMARK  190  A    between atoms: _452  and  _453
REMARK  191  A    between atoms: _452  and  _455
REMARK  192  A    between atoms: _455  and  _456
REMARK  193  A    between atoms: _462  and  _464
REMARK  194  A    between atoms: _464  and  _465
REMARK  195  A    between atoms: _464  and  _467
REMARK  196  A    between atoms: _467  and  _468
REMARK  197  A    between atoms: _474  and  _476
REMARK  198  A    between atoms: _476  and  _477
REMARK  199  A    between atoms: _476  and  _479
REMARK  200  A    between atoms: _479  and  _480
REMARK  201  A    between atoms: _480  and  _481
REMARK  202  A    between atoms: _483  and  _485
REMARK  203  A    between atoms: _485  and  _486
REMARK  204  A    between atoms: _485  and  _488
REMARK  205  A    between atoms: _488  and  _489
REMARK  206  A    between atoms: _489  and  _490
REMARK  207  A    between atoms: _490  and  _491
REMARK  208  A    between atoms: _491  and  _492
REMARK  209  A    between atoms: _496  and  _498
REMARK  210  A    between atoms: _498  and  _499
REMARK  211  A    between atoms: _498  and  _501
REMARK  212  A    between atoms: _501  and  _502
REMARK  213  A    between atoms: _508  and  _510
REMARK  214  A    between atoms: _510  and  _511
REMARK  215  A    between atoms: _510  and  _513
REMARK  216  A    between atoms: _513  and  _514
REMARK  217  A    between atoms: _517  and  _519
REMARK  218  A    between atoms: _519  and  _520
REMARK  219  A    between atoms: _519  and  _522
REMARK  220  A    between atoms: _522  and  _523
REMARK  221  A    between atoms: _526  and  _528
REMARK  222  A    between atoms: _528  and  _529
REMARK  223  A    between atoms: _528  and  _531
REMARK  224  A    between atoms: _534  and  _536
REMARK  225  A    between atoms: _536  and  _537
REMARK  226  A    between atoms: _536  and  _539
REMARK  227  A    between atoms: _539  and  _540
REMARK  228  A    between atoms: _545  and  _547
REMARK  229  A    between atoms: _547  and  _548
REMARK  230  A    between atoms: _547  and  _550
REMARK  231  A    between atoms: _553  and  _555
REMARK  232  A    between atoms: _555  and  _556
REMARK  233  A    between atoms: _555  and  _558
REMARK  234  A    between atoms: _558  and  _559
REMARK  235  A    between atoms: _562  and  _564
REMARK  236  A    between atoms: _564  and  _565
REMARK  237  A    between atoms: _564  and  _567
REMARK  238  A    between atoms: _567  and  _568
REMARK  239  A    between atoms: _571  and  _573
REMARK  240  A    between atoms: _573  and  _574
REMARK  241  A    between atoms: _573  and  _576
REMARK  242  A    between atoms: _576  and  _577
REMARK  243  A    between atoms: _580  and  _582
REMARK  244  A    between atoms: _582  and  _583
REMARK  245  A    between atoms: _582  and  _585
REMARK  246  A    between atoms: _585  and  _586
REMARK  247  A    between atoms: _586  and  _587
REMARK  248  A    between atoms: _589  and  _591
REMARK  249  A    between atoms: _591  and  _592
REMARK  250  A    between atoms: _591  and  _594
REMARK  251  A    between atoms: _594  and  _595
REMARK  252  A    between atoms: _597  and  _599
REMARK  253  A    between atoms: _599  and  _600
REMARK  254  A    between atoms: _599  and  _602
REMARK  255  A    between atoms: _602  and  _603
REMARK  256  A    between atoms: _606  and  _608
REMARK  257  A    between atoms: _608  and  _609
REMARK  258  A    between atoms: _608  and  _611
REMARK  259  A    between atoms: _611  and  _612
REMARK  260  A    between atoms: _617  and  _619
REMARK  261  A    between atoms: _619  and  _620
REMARK  262  A    between atoms: _619  and  _622
REMARK  263  A    between atoms: _622  and  _623
REMARK  264  A    between atoms: _626  and  _628
REMARK  265  A    between atoms: _628  and  _629
REMARK  266  A    between atoms: _628  and  _631
REMARK  267  A    between atoms: _631  and  _632
REMARK  268  A    between atoms: _632  and  _633
REMARK  269  A    between atoms: _638  and  _640
REMARK  270  A    between atoms: _640  and  _641
REMARK  271  A    between atoms: _640  and  _643
REMARK  272  A    between atoms: _643  and  _644
REMARK  273  A    between atoms: _647  and  _649
REMARK  274  A    between atoms: _649  and  _650
REMARK  275  A    between atoms: _649  and  _652
REMARK  276  A    between atoms: _652  and  _653
REMARK  277  A    between atoms: _658  and  _659
REMARK                            x       y       z     vdW  Elec       q    Type
REMARK                         _______ _______ _______ _____ _____    ______ ____
ROOT
ATOM      1  C   LEU A   1      28.902  17.274  21.058  0.00  0.00    +0.238 C 
ATOM      2  N   LEU A   2      27.772  17.350  21.752  0.00  0.00    -0.298 N 
ATOM      3  H   LEU A   2      27.294  16.470  22.031  0.00  0.00    +0.150 HD
ATOM      4  O   LEU A   1      29.529  18.266  20.675  0.00  0.00    -0.274 OA
ENDROOT
BRANCH   1   5
ATOM      5  CA  LEU A   1      29.397  15.864  20.758  0.00  0.00    +0.145 C 
BRANCH   5   6
ATOM      6  N   LEU A   1      29.072  14.977  21.864  0.00  0.00    -0.238 NA
ATOM      7  H   LEU A   1      28.303  14.285  21.762  0.00  0.00    +0.142 HD
ENDBRANCH   5   6
BRANCH   5   8
ATOM      8  CB  LEU A   1      28.771  15.359  19.456  0.00  0.00    +0.026 C 
BRANCH   8   9
ATOM      9  CG  LEU A   1      29.306  16.030  18.190  0.00  0.00    +0.002 C 
ATOM     10  CD2 LEU A   1      30.829  15.976  18.191  0.00  0.00    +0.000 C 
ATOM     11  CD1 LEU A   1      28.752  15.325  16.960  0.00  0.00    +0.000 C 
ENDBRANCH   8   9
ENDBRANCH   5   8
ENDBRANCH   1   5
BRANCH   2  12
ATOM     12  CA  LEU A   2      27.181  18.622  22.135  0.00  0.00    +0.137 C 
BRANCH  12  13
ATOM     13  C   LEU A   2      28.125  19.388  23.073  0.00  0.00    +0.227 C 
ATOM     14  O   LEU A   2      28.296  20.597  22.942  0.00  0.00    -0.286 OA
ENDBRANCH  12  13
BRANCH  12  15
ATOM     15  CB  LEU A   2      25.842  18.370  22.828  0.00  0.00    +0.028 C 
BRANCH  15  16
ATOM     16  CG  LEU A   2      24.596  19.037  22.247  0.00  0.00    +0.002 C 
ATOM     17  CD2 LEU A   2      23.373  18.408  22.876  0.00  0.00    +0.000 C 
ATOM     18  CD1 LEU A   2      24.554  18.887  20.735  0.00  0.00    +0.000 C 
ENDBRANCH  15  16
ENDBRANCH  12  15
ENDBRANCH   2  12
TORSDOF 8
REMARK  Name = ../refined-set-2016/2i4z/2i4z_pocket.pdb
REMARK  277 active torsions:
REMARK  status: ('A' for Active; 'I' for Inactive)
REMARK    1  A    between atoms: _1  and  _3
REMARK    2  A    between atoms: _3  and  _4
REMARK    3  A    between atoms: _3  and  _6
REMARK    4  A    between atoms: _6  and  _7
REMARK    5  A    between atoms: _12  and  _13
REMARK    6  A    between atoms: _15  and  _17
REMARK    7  A    between atoms: _17  and  _18
REMARK    8  A    between atoms: _17  and  _20
REMARK    9  A    between atoms: _20  and  _21
REMARK   10  A    between atoms: _23  and  _25
REMARK   11  A    between atoms: _25  and  _26
REMARK   12  A    between atoms: _25  and  _28
REMARK   13  A    between atoms: _28  and  _29
REMARK   14  A    between atoms: _36  and  _37
REMARK   15  A    between atoms: _42  and  _44
REMARK   16  A    between atoms: _44  and  _45
REMARK   17  A    between atoms: _44  and  _47
REMARK   18  A    between atoms: _47  and  _48
REMARK   19  A    between atoms: _51  and  _53
REMARK   20  A    between atoms: _53  and  _54
REMARK   21  A    between atoms: _53  and  _56
REMARK   22  A    between atoms: _56  and  _57
REMARK   23  A    between atoms: _63  and  _65
REMARK   24  A    between atoms: _65  and  _66
REMARK   25  A    between atoms: _65  and  _68
REMARK   26  A    between atoms: _68  and  _69
REMARK   27  A    between atoms: _72  and  _74
REMARK   28  A    between atoms: _74  and  _75
REMARK   29  A    between atoms: _74  and  _77
REMARK   30  A    between atoms: _77  and  _78
REMARK   31  A    between atoms: _81  and  _83
REMARK   32  A    between atoms: _83  and  _84
REMARK   33  A    between atoms: _83  and  _86
REMARK   34  A    between atoms: _86  and  _87
REMARK   35  A    between atoms: _93  and  _95
REMARK   36  A    between atoms: _95  and  _96
REMARK   37  A    between atoms: _95  and  _98
REMARK   38  A    between atoms: _98  and  _99
REMARK   39  A    between atoms: _99  and  _100
REMARK   40  A    between atoms: _105  and  _107
REMARK   41  A    between atoms: _107  and  _108
REMARK   42  A    between atoms: _110  and  _112
REMARK   43  A    between atoms: _112  and  _113
REMARK   44  A    between atoms: _112  and  _115
REMARK   45  A    between atoms: _117  and  _119
REMARK   46  A    between atoms: _119  and  _120
REMARK   47  A    between atoms: _119  and  _122
REMARK   48  A    between atoms: _122  and  _123
REMARK   49  A    between atoms: _123  and  _124
REMARK   50  A    between atoms: _129  and  _131
REMARK   51  A    between atoms: _131  and  _132
REMARK   52  A    between atoms: _131  and  _134
REMARK   53  A    between atoms: _134  and  _135
REMARK   54  A    between atoms: _141  and  _143
REMARK   55  A    between atoms: _143  and  _144
REMARK   56  A    between atoms: _143  and  _146
REMARK   57  A    between atoms: _146  and  _147
REMARK   58  A    between atoms: _147  and  _148
REMARK   59  A    between atoms: _148  and  _149
REMARK   60  A    between atoms: _158  and  _160
REMARK   61  A    between atoms: _160  and  _161
REMARK   62  A    between atoms: _160  and  _163
REMARK   63  A    between atoms: _163  and  _164
REMARK   64  A    between atoms: _166  and  _168
REMARK   65  A    between atoms: _168  and  _169
REMARK   66  A    between atoms: _168  and  _171
REMARK   67  A    between atoms: _174  and  _176
REMARK   68  A    between atoms: _176  and  _177
REMARK   69  A    between atoms: _176  and  _179
REMARK   70  A    between atoms: _179  and  _180
REMARK   71  A    between atoms: _180  and  _181
REMARK   72  A    between atoms: _184  and  _186
REMARK   73  A    between atoms: _186  and  _187
REMARK   74  A    between atoms: _190  and  _192
REMARK   75  A    between atoms: _192  and  _193
REMARK   76  A    between atoms: _192  and  _195
REMARK   77  A    between atoms: _198  and  _200
REMARK   78  A    between atoms: _200  and  _201
REMARK   79  A    between atoms: _200  and  _203
REMARK   80  A    between atoms: _203  and  _204
REMARK   81  A    between atoms: _204  and  _205
REMARK   82  A    between atoms: _210  and  _212
REMARK   83  A    between atoms: _212  and  _213
REMARK   84  A    between atoms: _212  and  _215
REMARK   85  A    between atoms: _215  and  _216
REMARK   86  A    between atoms: _216  and  _217
REMARK   87  A    between atoms: _220  and  _222
REMARK   88  A    between atoms: _222  and  _223
REMARK   89  A    between atoms: _222  and  _225
REMARK   90  A    between atoms: _225  and  _226
REMARK   91  A    between atoms: _229  and  _231
REMARK   92  A    between atoms: _231  and  _232
REMARK   93  A    between atoms: _231  and  _234
REMARK   94  A    between atoms: _234  and  _235
REMARK   95  A    between atoms: _238  and  _240
REMARK   96  A    between atoms: _240  and  _241
REMARK   97  A    between atoms: _240  and  _243
REMARK   98  A    between atoms: _246  and  _248
REMARK   99  A    between atoms: _248  and  _249
REMARK  100  A    between atoms: _248  and  _251
REMARK  101  A    between atoms: _251  and  _252
REMARK  102  A    between atoms: _257  and  _259
REMARK  103  A    between atoms: _259  and  _260
REMARK  104  A    between atoms: _259  and  _262
REMARK  105  A    between atoms: _262  and  _263
REMARK  106  A    between atoms: _263  and  _264
REMARK  107  A    between atoms: _267  and  _269
REMARK  108  A    between atoms: _269  and  _270
REMARK  109  A    between atoms: _269  and  _272
REMARK  110  A    between atoms: _272  and  _273
REMARK  111  A    between atoms: _276  and  _278
REMARK  112  A    between atoms: _278  and  _279
REMARK  113  A    between atoms: _278  and  _281
REMARK  114  A    between atoms: _281  and  _282
REMARK  115  A    between atoms: _285  and  _287
REMARK  116  A    between atoms: _287  and  _288
REMARK  117  A    between atoms: _287  and  _290
REMARK  118  A    between atoms: _290  and  _291
REMARK  119  A    between atoms: _296  and  _297
REMARK  120  A    between atoms: _299  and  _301
REMARK  121  A    between atoms: _301  and  _302
REMARK  122  A    between atoms: _301  and  _304
REMARK  123  A    between atoms: _304  and  _305
REMARK  124  A    between atoms: _308  and  _310
REMARK  125  A    between atoms: _310  and  _311
REMARK  126  A    between atoms: _310  and  _313
REMARK  127  A    between atoms: _313  and  _314
REMARK  128  A    between atoms: _314  and  _315
REMARK  129  A    between atoms: _317  and  _319
REMARK  130  A    between atoms: _319  and  _320
REMARK  131  A    between atoms: _319  and  _322
REMARK  132  A    between atoms: _322  and  _323
REMARK  133  A    between atoms: _326  and  _328
REMARK  134  A    between atoms: _328  and  _329
REMARK  135  A    between atoms: _332  and  _334
REMARK  136  A    between atoms: _334  and  _335
REMARK  137  A    between atoms: _334  and  _337
REMARK  138  A    between atoms: _337  and  _338
REMARK  139  A    between atoms: _340  and  _342
REMARK  140  A    between atoms: _342  and  _343
REMARK  141  A    between atoms: _342  and  _345
REMARK  142  A    between atoms: _345  and  _346
REMARK  143  A    between atoms: _349  and  _351
REMARK  144  A    between atoms: _351  and  _352
REMARK  145  A    between atoms: _351  and  _354
REMARK  146  A    between atoms: _354  and  _355
REMARK  147  A    between atoms: _355  and  _356
REMARK  148  A    between atoms: _358  and  _360
REMARK  149  A    between atoms: _360  and  _361
REMARK  150  A    between atoms: _360  and  _363
REMARK  151  A    between atoms: _366  and  _368
REMARK  152  A    between atoms: _368  and  _369
REMARK  153  A    between atoms: _368  and  _371
REMARK  154  A    between atoms: _371  and  _372
REMARK  155  A    between atoms: _375  and  _377
REMARK  156  A    between atoms: _377  and  _378
REMARK  157  A    between atoms: _377  and  _380
REMARK  158  A    between atoms: _380  and  _381
REMARK  159  A    between atoms: _384  and  _386
REMARK  160  A    between atoms: _386  and  _387
REMARK  161  A    between atoms: _386  and  _389
REMARK  162  A    between atoms: _389  and  _390
REMARK  163  A    between atoms: _392  and  _394
REMARK  164  A    between atoms: _394  and  _395
REMARK  165  A    between atoms: _394  and  _397
REMARK  166  A    between atoms: _397  and  _398
REMARK  167  A    between atoms: _398  and  _399
REMARK  168  A    between atoms: _402  and  _404
REMARK  169  A    between atoms: _404  and  _405
REMARK  170  A    between atoms: _404  and  _407
REMARK  171  A    between atoms: _407  and  _408
REMARK  172  A    between atoms: _414  and  _416
REMARK  173  A    between atoms: _416  and  _417
REMARK  174  A    between atoms: _416  and  _419
REMARK  175  A    between atoms: _419  and  _420
REMARK  176  A    between atoms: _420  and  _421
REMARK  177  A    between atoms: _423  and  _425
REMARK  178  A    between atoms: _425  and  _426
REMARK  179  A    between atoms: _425  and  _428
REMARK  180  A    between atoms: _428  and  _429
REMARK  181  A    between atoms: _432  and  _434
REMARK  182  A    between atoms: _434  and  _435
REMARK  183  A    between atoms: _434  and  _437
REMARK  184  A    between atoms: _437  and  _438
REMARK  185  A    between atoms: _441  and  _443
REMARK  186  A    between atoms: _443  and  _444
REMARK  187  A    between atoms: _443  and  _446
REMARK  188  A    between atoms: _446  and  _447
REMARK  189  A    between atoms: _450  and  _452
REMARK  190  A    between atoms: _452  and  _453
REMARK  191  A    between atoms: _452  and  _455
REMARK  192  A    between atoms: _455  and  _456
REMARK  193  A    between atoms: _462  and  _464
REMARK  194  A    between atoms: _464  and  _465
REMARK  195  A    between atoms: _464  and  _467
REMARK  196  A    between atoms: _467  and  _468
REMARK  197  A    between atoms: _474  and  _476
REMARK  198  A    between atoms: _476  and  _477
REMARK  199  A    between atoms: _476  and  _479
REMARK  200  A    between atoms: _479  and  _480
REMARK  201  A    between atoms: _480  and  _481
REMARK  202  A    between atoms: _483  and  _485
REMARK  203  A    between atoms: _485  and  _486
REMARK  204  A    between atoms: _485  and  _488
REMARK  205  A    between atoms: _488  and  _489
REMARK  206  A    between atoms: _489  and  _490
REMARK  207  A    between atoms: _490  and  _491
REMARK  208  A    between atoms: _491  and  _492
REMARK  209  A    between atoms: _496  and  _498
REMARK  210  A    between atoms: _498  and  _499
REMARK  211  A    between atoms: _498  and  _501
REMARK  212  A    between atoms: _501  and  _502
REMARK  213  A    between atoms: _508  and  _510
REMARK  214  A    between atoms: _510  and  _511
REMARK  215  A    between atoms: _510  and  _513
REMARK  216  A    between atoms: _513  and  _514
REMARK  217  A    between atoms: _517  and  _519
REMARK  218  A    between atoms: _519  and  _520
REMARK  219  A    between atoms: _519  and  _522
REMARK  220  A    between atoms: _522  and  _523
REMARK  221  A    between atoms: _526  and  _528
REMARK  222  A    between atoms: _528  and  _529
REMARK  223  A    between atoms: _528  and  _531
REMARK  224  A    between atoms: _534  and  _536
REMARK  225  A    between atoms: _536  and  _537
REMARK  226  A    between atoms: _536  and  _539
REMARK  227  A    between atoms: _539  and  _540
REMARK  228  A    between atoms: _545  and  _547
REMARK  229  A    between atoms: _547  and  _548
REMARK  230  A    between atoms: _547  and  _550
REMARK  231  A    between atoms: _553  and  _555
REMARK  232  A    between atoms: _555  and  _556
REMARK  233  A    between atoms: _555  and  _558
REMARK  234  A    between atoms: _558  and  _559
REMARK  235  A    between atoms: _562  and  _564
REMARK  236  A    between atoms: _564  and  _565
REMARK  237  A    between atoms: _564  and  _567
REMARK  238  A    between atoms: _567  and  _568
REMARK  239  A    between atoms: _571  and  _573
REMARK  240  A    between atoms: _573  and  _574
REMARK  241  A    between atoms: _573  and  _576
REMARK  242  A    between atoms: _576  and  _577
REMARK  243  A    between atoms: _580  and  _582
REMARK  244  A    between atoms: _582  and  _583
REMARK  245  A    between atoms: _582  and  _585
REMARK  246  A    between atoms: _585  and  _586
REMARK  247  A    between atoms: _586  and  _587
REMARK  248  A    between atoms: _589  and  _591
REMARK  249  A    between atoms: _591  and  _592
REMARK  250  A    between atoms: _591  and  _594
REMARK  251  A    between atoms: _594  and  _595
REMARK  252  A    between atoms: _597  and  _599
REMARK  253  A    between atoms: _599  and  _600
REMARK  254  A    between atoms: _599  and  _602
REMARK  255  A    between atoms: _602  and  _603
REMARK  256  A    between atoms: _606  and  _608
REMARK  257  A    between atoms: _608  and  _609
REMARK  258  A    between atoms: _608  and  _611
REMARK  259  A    between atoms: _611  and  _612
REMARK  260  A    between atoms: _617  and  _619
REMARK  261  A    between atoms: _619  and  _620
REMARK  262  A    between atoms: _619  and  _622
REMARK  263  A    between atoms: _622  and  _623
REMARK  264  A    between atoms: _626  and  _628
REMARK  265  A    between atoms: _628  and  _629
REMARK  266  A    between atoms: _628  and  _631
REMARK  267  A    between atoms: _631  and  _632
REMARK  268  A    between atoms: _632  and  _633
REMARK  269  A    between atoms: _638  and  _640
REMARK  270  A    between atoms: _640  and  _641
REMARK  271  A    between atoms: _640  and  _643
REMARK  272  A    between atoms: _643  and  _644
REMARK  273  A    between atoms: _647  and  _649
REMARK  274  A    between atoms: _649  and  _650
REMARK  275  A    between atoms: _649  and  _652
REMARK  276  A    between atoms: _652  and  _653
REMARK  277  A    between atoms: _658  and  _659
REMARK                            x       y       z     vdW  Elec       q    Type
REMARK                         _______ _______ _______ _____ _____    ______ ____
ROOT
ATOM      1  CA  ILE A   1      30.350  22.182  20.276  0.00  0.00    +0.133 C 
ENDROOT
BRANCH   1   2
ATOM      2  N   ILE A   1      30.868  21.018  20.998  0.00  0.00    -0.239 NA
ATOM      3  H   ILE A   1      30.302  20.146  21.003  0.00  0.00    +0.142 HD
ENDBRANCH   1   2
BRANCH   1   4
ATOM      4  C   ILE A   1      30.188  23.379  21.204  0.00  0.00    +0.224 C 
ATOM      5  O   ILE A   1      30.580  24.498  20.875  0.00  0.00    -0.287 OA
ENDBRANCH   1   4
BRANCH   1   6
ATOM      6  CB  ILE A   1      28.977  21.860  19.644  0.00  0.00    +0.023 C 
ATOM      7  CG2 ILE A   1      28.505  23.019  18.778  0.00  0.00    +0.002 C 
BRANCH   6   8
ATOM      8  CG1 ILE A   1      29.094  20.590  18.803  0.00  0.00    +0.002 C 
ATOM      9  CD1 ILE A   1      30.226  20.637  17.815  0.00  0.00    +0.000 C 
ENDBRANCH   6   8
ENDBRANCH   1   6
TORSDOF 4
REMARK  Name = ../refined-set-2016/2i4z/2i4z_pocket.pdb
REMARK  277 active torsions:
REMARK  status: ('A' for Active; 'I' for Inactive)
REMARK    1  A    between atoms: _1  and  _3
REMARK    2  A    between atoms: _3  and  _4
REMARK    3  A    between atoms: _3  and  _6
REMARK    4  A    between atoms: _6  and  _7
REMARK    5  A    between atoms: _12  and  _13
REMARK    6  A    between atoms: _15  and  _17
REMARK    7  A    between atoms: _17  and  _18
REMARK    8  A    between atoms: _17  and  _20
REMARK    9  A    between atoms: _20  and  _21
REMARK   10  A    between atoms: _23  and  _25
REMARK   11  A    between atoms: _25  and  _26
REMARK   12  A    between atoms: _25  and  _28
REMARK   13  A    between atoms: _28  and  _29
REMARK   14  A    between atoms: _36  and  _37
REMARK   15  A    between atoms: _42  and  _44
REMARK   16  A    between atoms: _44  and  _45
REMARK   17  A    between atoms: _44  and  _47
REMARK   18  A    between atoms: _47  and  _48
REMARK   19  A    between atoms: _51  and  _53
REMARK   20  A    between atoms: _53  and  _54
REMARK   21  A    between atoms: _53  and  _56
REMARK   22  A    between atoms: _56  and  _57
REMARK   23  A    between atoms: _63  and  _65
REMARK   24  A    between atoms: _65  and  _66
REMARK   25  A    between atoms: _65  and  _68
REMARK   26  A    between atoms: _68  and  _69
REMARK   27  A    between atoms: _72  and  _74
REMARK   28  A    between atoms: _74  and  _75
REMARK   29  A    between atoms: _74  and  _77
REMARK   30  A    between atoms: _77  and  _78
REMARK   31  A    between atoms: _81  and  _83
REMARK   32  A    between atoms: _83  and  _84
REMARK   33  A    between atoms: _83  and  _86
REMARK   34  A    between atoms: _86  and  _87
REMARK   35  A    between atoms: _93  and  _95
REMARK   36  A    between atoms: _95  and  _96
REMARK   37  A    between atoms: _95  and  _98
REMARK   38  A    between atoms: _98  and  _99
REMARK   39  A    between atoms: _99  and  _100
REMARK   40  A    between atoms: _105  and  _107
REMARK   41  A    between atoms: _107  and  _108
REMARK   42  A    between atoms: _110  and  _112
REMARK   43  A    between atoms: _112  and  _113
REMARK   44  A    between atoms: _112  and  _115
REMARK   45  A    between atoms: _117  and  _119
REMARK   46  A    between atoms: _119  and  _120
REMARK   47  A    between atoms: _119  and  _122
REMARK   48  A    between atoms: _122  and  _123
REMARK   49  A    between atoms: _123  and  _124
REMARK   50  A    between atoms: _129  and  _131
REMARK   51  A    between atoms: _131  and  _132
REMARK   52  A    between atoms: _131  and  _134
REMARK   53  A    between atoms: _134  and  _135
REMARK   54  A    between atoms: _141  and  _143
REMARK   55  A    between atoms: _143  and  _144
REMARK   56  A    between atoms: _143  and  _146
REMARK   57  A    between atoms: _146  and  _147
REMARK   58  A    between atoms: _147  and  _148
REMARK   59  A    between atoms: _148  and  _149
REMARK   60  A    between atoms: _158  and  _160
REMARK   61  A    between atoms: _160  and  _161
REMARK   62  A    between atoms: _160  and  _163
REMARK   63  A    between atoms: _163  and  _164
REMARK   64  A    between atoms: _166  and  _168
REMARK   65  A    between atoms: _168  and  _169
REMARK   66  A    between atoms: _168  and  _171
REMARK   67  A    between atoms: _174  and  _176
REMARK   68  A    between atoms: _176  and  _177
REMARK   69  A    between atoms: _176  and  _179
REMARK   70  A    between atoms: _179  and  _180
REMARK   71  A    between atoms: _180  and  _181
REMARK   72  A    between atoms: _184  and  _186
REMARK   73  A    between atoms: _186  and  _187
REMARK   74  A    between atoms: _190  and  _192
REMARK   75  A    between atoms: _192  and  _193
REMARK   76  A    between atoms: _192  and  _195
REMARK   77  A    between atoms: _198  and  _200
REMARK   78  A    between atoms: _200  and  _201
REMARK   79  A    between atoms: _200  and  _203
REMARK   80  A    between atoms: _203  and  _204
REMARK   81  A    between atoms: _204  and  _205
REMARK   82  A    between atoms: _210  and  _212
REMARK   83  A    between atoms: _212  and  _213
REMARK   84  A    between atoms: _212  and  _215
REMARK   85  A    between atoms: _215  and  _216
REMARK   86  A    between atoms: _216  and  _217
REMARK   87  A    between atoms: _220  and  _222
REMARK   88  A    between atoms: _222  and  _223
REMARK   89  A    between atoms: _222  and  _225
REMARK   90  A    between atoms: _225  and  _226
REMARK   91  A    between atoms: _229  and  _231
REMARK   92  A    between atoms: _231  and  _232
REMARK   93  A    between atoms: _231  and  _234
REMARK   94  A    between atoms: _234  and  _235
REMARK   95  A    between atoms: _238  and  _240
REMARK   96  A    between atoms: _240  and  _241
REMARK   97  A    between atoms: _240  and  _243
REMARK   98  A    between atoms: _246  and  _248
REMARK   99  A    between atoms: _248  and  _249
REMARK  100  A    between atoms: _248  and  _251
REMARK  101  A    between atoms: _251  and  _252
REMARK  102  A    between atoms: _257  and  _259
REMARK  103  A    between atoms: _259  and  _260
REMARK  104  A    between atoms: _259  and  _262
REMARK  105  A    between atoms: _262  and  _263
REMARK  106  A    between atoms: _263  and  _264
REMARK  107  A    between atoms: _267  and  _269
REMARK  108  A    between atoms: _269  and  _270
REMARK  109  A    between atoms: _269  and  _272
REMARK  110  A    between atoms: _272  and  _273
REMARK  111  A    between atoms: _276  and  _278
REMARK  112  A    between atoms: _278  and  _279
REMARK  113  A    between atoms: _278  and  _281
REMARK  114  A    between atoms: _281  and  _282
REMARK  115  A    between atoms: _285  and  _287
REMARK  116  A    between atoms: _287  and  _288
REMARK  117  A    between atoms: _287  and  _290
REMARK  118  A    between atoms: _290  and  _291
REMARK  119  A    between atoms: _296  and  _297
REMARK  120  A    between atoms: _299  and  _301
REMARK  121  A    between atoms: _301  and  _302
REMARK  122  A    between atoms: _301  and  _304
REMARK  123  A    between atoms: _304  and  _305
REMARK  124  A    between atoms: _308  and  _310
REMARK  125  A    between atoms: _310  and  _311
REMARK  126  A    between atoms: _310  and  _313
REMARK  127  A    between atoms: _313  and  _314
REMARK  128  A    between atoms: _314  and  _315
REMARK  129  A    between atoms: _317  and  _319
REMARK  130  A    between atoms: _319  and  _320
REMARK  131  A    between atoms: _319  and  _322
REMARK  132  A    between atoms: _322  and  _323
REMARK  133  A    between atoms: _326  and  _328
REMARK  134  A    between atoms: _328  and  _329
REMARK  135  A    between atoms: _332  and  _334
REMARK  136  A    between atoms: _334  and  _335
REMARK  137  A    between atoms: _334  and  _337
REMARK  138  A    between atoms: _337  and  _338
REMARK  139  A    between atoms: _340  and  _342
REMARK  140  A    between atoms: _342  and  _343
REMARK  141  A    between atoms: _342  and  _345
REMARK  142  A    between atoms: _345  and  _346
REMARK  143  A    between atoms: _349  and  _351
REMARK  144  A    between atoms: _351  and  _352
REMARK  145  A    between atoms: _351  and  _354
REMARK  146  A    between atoms: _354  and  _355
REMARK  147  A    between atoms: _355  and  _356
REMARK  148  A    between atoms: _358  and  _360
REMARK  149  A    between atoms: _360  and  _361
REMARK  150  A    between atoms: _360  and  _363
REMARK  151  A    between atoms: _366  and  _368
REMARK  152  A    between atoms: _368  and  _369
REMARK  153  A    between atoms: _368  and  _371
REMARK  154  A    between atoms: _371  and  _372
REMARK  155  A    between atoms: _375  and  _377
REMARK  156  A    between atoms: _377  and  _378
REMARK  157  A    between atoms: _377  and  _380
REMARK  158  A    between atoms: _380  and  _381
REMARK  159  A    between atoms: _384  and  _386
REMARK  160  A    between atoms: _386  and  _387
REMARK  161  A    between atoms: _386  and  _389
REMARK  162  A    between atoms: _389  and  _390
REMARK  163  A    between atoms: _392  and  _394
REMARK  164  A    between atoms: _394  and  _395
REMARK  165  A    between atoms: _394  and  _397
REMARK  166  A    between atoms: _397  and  _398
REMARK  167  A    between atoms: _398  and  _399
REMARK  168  A    between atoms: _402  and  _404
REMARK  169  A    between atoms: _404  and  _405
REMARK  170  A    between atoms: _404  and  _407
REMARK  171  A    between atoms: _407  and  _408
REMARK  172  A    between atoms: _414  and  _416
REMARK  173  A    between atoms: _416  and  _417
REMARK  174  A    between atoms: _416  and  _419
REMARK  175  A    between atoms: _419  and  _420
REMARK  176  A    between atoms: _420  and  _421
REMARK  177  A    between atoms: _423  and  _425
REMARK  178  A    between atoms: _425  and  _426
REMARK  179  A    between atoms: _425  and  _428
REMARK  180  A    between atoms: _428  and  _429
REMARK  181  A    between atoms: _432  and  _434
REMARK  182  A    between atoms: _434  and  _435
REMARK  183  A    between atoms: _434  and  _437
REMARK  184  A    between atoms: _437  and  _438
REMARK  185  A    between atoms: _441  and  _443
REMARK  186  A    between atoms: _443  and  _444
REMARK  187  A    between atoms: _443  and  _446
REMARK  188  A    between atoms: _446  and  _447
REMARK  189  A    between atoms: _450  and  _452
REMARK  190  A    between atoms: _452  and  _453
REMARK  191  A    between atoms: _452  and  _455
REMARK  192  A    between atoms: _455  and  _456
REMARK  193  A    between atoms: _462  and  _464
REMARK  194  A    between atoms: _464  and  _465
REMARK  195  A    between atoms: _464  and  _467
REMARK  196  A    between atoms: _467  and  _468
REMARK  197  A    between atoms: _474  and  _476
REMARK  198  A    between atoms: _476  and  _477
REMARK  199  A    between atoms: _476  and  _479
REMARK  200  A    between atoms: _479  and  _480
REMARK  201  A    between atoms: _480  and  _481
REMARK  202  A    between atoms: _483  and  _485
REMARK  203  A    between atoms: _485  and  _486
REMARK  204  A    between atoms: _485  and  _488
REMARK  205  A    between atoms: _488  and  _489
REMARK  206  A    between atoms: _489  and  _490
REMARK  207  A    between atoms: _490  and  _491
REMARK  208  A    between atoms: _491  and  _492
REMARK  209  A    between atoms: _496  and  _498
REMARK  210  A    between atoms: _498  and  _499
REMARK  211  A    between atoms: _498  and  _501
REMARK  212  A    between atoms: _501  and  _502
REMARK  213  A    between atoms: _508  and  _510
REMARK  214  A    between atoms: _510  and  _511
REMARK  215  A    between atoms: _510  and  _513
REMARK  216  A    between atoms: _513  and  _514
REMARK  217  A    between atoms: _517  and  _519
REMARK  218  A    between atoms: _519  and  _520
REMARK  219  A    between atoms: _519  and  _522
REMARK  220  A    between atoms: _522  and  _523
REMARK  221  A    between atoms: _526  and  _528
REMARK  222  A    between atoms: _528  and  _529
REMARK  223  A    between atoms: _528  and  _531
REMARK  224  A    between atoms: _534  and  _536
REMARK  225  A    between atoms: _536  and  _537
REMARK  226  A    between atoms: _536  and  _539
REMARK  227  A    between atoms: _539  and  _540
REMARK  228  A    between atoms: _545  and  _547
REMARK  229  A    between atoms: _547  and  _548
REMARK  230  A    between atoms: _547  and  _550
REMARK  231  A    between atoms: _553  and  _555
REMARK  232  A    between atoms: _555  and  _556
REMARK  233  A    between atoms: _555  and  _558
REMARK  234  A    between atoms: _558  and  _559
REMARK  235  A    between atoms: _562  and  _564
REMARK  236  A    between atoms: _564  and  _565
REMARK  237  A    between atoms: _564  and  _567
REMARK  238  A    between atoms: _567  and  _568
REMARK  239  A    between atoms: _571  and  _573
REMARK  240  A    between atoms: _573  and  _574
REMARK  241  A    between atoms: _573  and  _576
REMARK  242  A    between atoms: _576  and  _577
REMARK  243  A    between atoms: _580  and  _582
REMARK  244  A    between atoms: _582  and  _583
REMARK  245  A    between atoms: _582  and  _585
REMARK  246  A    between atoms: _585  and  _586
REMARK  247  A    between atoms: _586  and  _587
REMARK  248  A    between atoms: _589  and  _591
REMARK  249  A    between atoms: _591  and  _592
REMARK  250  A    between atoms: _591  and  _594
REMARK  251  A    between atoms: _594  and  _595
REMARK  252  A    between atoms: _597  and  _599
REMARK  253  A    between atoms: _599  and  _600
REMARK  254  A    between atoms: _599  and  _602
REMARK  255  A    between atoms: _602  and  _603
REMARK  256  A    between atoms: _606  and  _608
REMARK  257  A    between atoms: _608  and  _609
REMARK  258  A    between atoms: _608  and  _611
REMARK  259  A    between atoms: _611  and  _612
REMARK  260  A    between atoms: _617  and  _619
REMARK  261  A    between atoms: _619  and  _620
REMARK  262  A    between atoms: _619  and  _622
REMARK  263  A    between atoms: _622  and  _623
REMARK  264  A    between atoms: _626  and  _628
REMARK  265  A    between atoms: _628  and  _629
REMARK  266  A    between atoms: _628  and  _631
REMARK  267  A    between atoms: _631  and  _632
REMARK  268  A    between atoms: _632  and  _633
REMARK  269  A    between atoms: _638  and  _640
REMARK  270  A    between atoms: _640  and  _641
REMARK  271  A    between atoms: _640  and  _643
REMARK  272  A    between atoms: _643  and  _644
REMARK  273  A    between atoms: _647  and  _649
REMARK  274  A    between atoms: _649  and  _650
REMARK  275  A    between atoms: _649  and  _652
REMARK  276  A    between atoms: _652  and  _653
REMARK  277  A    between atoms: _658  and  _659
REMARK                            x       y       z     vdW  Elec       q    Type
REMARK                         _______ _______ _______ _____ _____    ______ ____
ROOT
ATOM      1  C   SER A   2      22.138  27.612  21.546  0.00  0.00    +0.243 C 
ATOM      2  N   LEU A   3      21.571  27.229  22.682  0.00  0.00    -0.297 N 
ATOM      3  H   LEU A   3      21.700  27.812  23.533  0.00  0.00    +0.150 HD
ATOM      4  O   SER A   2      22.054  26.964  20.505  0.00  0.00    -0.273 OA
ENDROOT
BRANCH   2   5
ATOM      5  CA  LEU A   3      20.775  26.018  22.770  0.00  0.00    +0.149 C 
BRANCH   5   6
ATOM      6  C   LEU A   3      19.493  26.370  23.510  0.00  0.00    +0.241 C 
ATOM      7  O   LEU A   3      19.518  27.139  24.472  0.00  0.00    -0.273 OA
ATOM      8  N   HIS A   4      18.374  25.820  23.056  0.00  0.00    -0.298 N 
ATOM      9  H   HIS A   4      18.416  25.180  22.237  0.00  0.00    +0.150 HD
BRANCH   8  10
ATOM     10  CA  HIS A   4      17.090  26.096  23.682  0.00  0.00    +0.143 C 
BRANCH  10  11
ATOM     11  C   HIS A   4      17.053  25.593  25.126  0.00  0.00    +0.227 C 
ATOM     12  O   HIS A   4      17.561  24.511  25.431  0.00  0.00    -0.286 OA
ENDBRANCH  10  11
BRANCH  10  13
ATOM     13  CB  HIS A   4      15.961  25.447  22.874  0.00  0.00    +0.075 C 
BRANCH  13  14
ATOM     14  CG  HIS A   4      14.602  25.964  23.223  0.00  0.00    +0.082 A 
ATOM     15  ND1 HIS A   4      14.029  25.772  24.461  0.00  0.00    -0.227 NA
ATOM     16  CE1 HIS A   4      12.853  26.372  24.498  0.00  0.00    +0.199 A 
ATOM     17  NE2 HIS A   4      12.642  26.945  23.327  0.00  0.00    -0.221 NA
ATOM     18  CD2 HIS A   4      13.720  26.703  22.511  0.00  0.00    +0.115 A 
ENDBRANCH  13  14
ENDBRANCH  10  13
ENDBRANCH   8  10
ENDBRANCH   5   6
BRANCH   5  19
ATOM     19  CB  LEU A   3      21.534  24.926  23.522  0.00  0.00    +0.029 C 
BRANCH  19  20
ATOM     20  CG  LEU A   3      21.012  23.513  23.237  0.00  0.00    +0.002 C 
ATOM     21  CD2 LEU A   3      20.534  22.858  24.511  0.00  0.00    +0.000 C 
ATOM     22  CD1 LEU A   3      22.112  22.687  22.593  0.00  0.00    +0.000 C 
ENDBRANCH  19  20
ENDBRANCH   5  19
ENDBRANCH   2   5
BRANCH   1  23
ATOM     23  CA  SER A   2      22.925  28.920  21.604  0.00  0.00    +0.178 C 
BRANCH  23  26
ATOM     24  C   MET A   1      25.254  28.533  21.048  0.00  0.00    +0.238 C 
ATOM     25  O   MET A   1      25.505  28.116  22.181  0.00  0.00    -0.274 OA
ATOM     26  N   SER A   2      24.047  28.938  20.676  0.00  0.00    -0.295 N 
ATOM     27  H   SER A   2      23.899  29.275  19.703  0.00  0.00    +0.150 HD
BRANCH  24  28
ATOM     28  CA  MET A   1      26.337  28.608  19.985  0.00  0.00    +0.146 C 
BRANCH  28  29
ATOM     29  N   MET A   1      27.315  29.639  20.321  0.00  0.00    -0.238 NA
ATOM     30  H   MET A   1      28.170  29.370  20.849  0.00  0.00    +0.142 HD
ENDBRANCH  28  29
BRANCH  28  31
ATOM     31  CB  MET A   1      27.030  27.249  19.855  0.00  0.00    +0.038 C 
BRANCH  31  32
ATOM     32  CG  MET A   1      27.100  26.696  18.431  0.00  0.00    +0.060 C 
BRANCH  32  33
ATOM     33  SD  MET A   1      25.657  25.701  17.987  0.00  0.00    -0.139 S 
ATOM     34  CE  MET A   1      24.514  26.995  17.460  0.00  0.00    +0.069 C 
ENDBRANCH  32  33
ENDBRANCH  31  32
ENDBRANCH  28  31
ENDBRANCH  24  28
ENDBRANCH  23  26
BRANCH  23  35
ATOM     35  CB  SER A   2      21.990  30.100  21.321  0.00  0.00    +0.166 C 
BRANCH  35  36
ATOM     36  OG  SER A   2      21.674  30.172  19.946  0.00  0.00    -0.380 OA
ATOM     37  H   SER A   2      21.070  30.940  19.787  0.00  0.00    +0.211 HD
ENDBRANCH  35  36
ENDBRANCH  23  35
ENDBRANCH   1  23
TORSDOF 17
REMARK  Name = ../refined-set-2016/2i4z/2i4z_pocket.pdb
REMARK  277 active torsions:
REMARK  status: ('A' for Active; 'I' for Inactive)
REMARK    1  A    between atoms: _1  and  _3
REMARK    2  A    between atoms: _3  and  _4
REMARK    3  A    between atoms: _3  and  _6
REMARK    4  A    between atoms: _6  and  _7
REMARK    5  A    between atoms: _12  and  _13
REMARK    6  A    between atoms: _15  and  _17
REMARK    7  A    between atoms: _17  and  _18
REMARK    8  A    between atoms: _17  and  _20
REMARK    9  A    between atoms: _20  and  _21
REMARK   10  A    between atoms: _23  and  _25
REMARK   11  A    between atoms: _25  and  _26
REMARK   12  A    between atoms: _25  and  _28
REMARK   13  A    between atoms: _28  and  _29
REMARK   14  A    between atoms: _36  and  _37
REMARK   15  A    between atoms: _42  and  _44
REMARK   16  A    between atoms: _44  and  _45
REMARK   17  A    between atoms: _44  and  _47
REMARK   18  A    between atoms: _47  and  _48
REMARK   19  A    between atoms: _51  and  _53
REMARK   20  A    between atoms: _53  and  _54
REMARK   21  A    between atoms: _53  and  _56
REMARK   22  A    between atoms: _56  and  _57
REMARK   23  A    between atoms: _63  and  _65
REMARK   24  A    between atoms: _65  and  _66
REMARK   25  A    between atoms: _65  and  _68
REMARK   26  A    between atoms: _68  and  _69
REMARK   27  A    between atoms: _72  and  _74
REMARK   28  A    between atoms: _74  and  _75
REMARK   29  A    between atoms: _74  and  _77
REMARK   30  A    between atoms: _77  and  _78
REMARK   31  A    between atoms: _81  and  _83
REMARK   32  A    between atoms: _83  and  _84
REMARK   33  A    between atoms: _83  and  _86
REMARK   34  A    between atoms: _86  and  _87
REMARK   35  A    between atoms: _93  and  _95
REMARK   36  A    between atoms: _95  and  _96
REMARK   37  A    between atoms: _95  and  _98
REMARK   38  A    between atoms: _98  and  _99
REMARK   39  A    between atoms: _99  and  _100
REMARK   40  A    between atoms: _105  and  _107
REMARK   41  A    between atoms: _107  and  _108
REMARK   42  A    between atoms: _110  and  _112
REMARK   43  A    between atoms: _112  and  _113
REMARK   44  A    between atoms: _112  and  _115
REMARK   45  A    between atoms: _117  and  _119
REMARK   46  A    between atoms: _119  and  _120
REMARK   47  A    between atoms: _119  and  _122
REMARK   48  A    between atoms: _122  and  _123
REMARK   49  A    between atoms: _123  and  _124
REMARK   50  A    between atoms: _129  and  _131
REMARK   51  A    between atoms: _131  and  _132
REMARK   52  A    between atoms: _131  and  _134
REMARK   53  A    between atoms: _134  and  _135
REMARK   54  A    between atoms: _141  and  _143
REMARK   55  A    between atoms: _143  and  _144
REMARK   56  A    between atoms: _143  and  _146
REMARK   57  A    between atoms: _146  and  _147
REMARK   58  A    between atoms: _147  and  _148
REMARK   59  A    between atoms: _148  and  _149
REMARK   60  A    between atoms: _158  and  _160
REMARK   61  A    between atoms: _160  and  _161
REMARK   62  A    between atoms: _160  and  _163
REMARK   63  A    between atoms: _163  and  _164
REMARK   64  A    between atoms: _166  and  _168
REMARK   65  A    between atoms: _168  and  _169
REMARK   66  A    between atoms: _168  and  _171
REMARK   67  A    between atoms: _174  and  _176
REMARK   68  A    between atoms: _176  and  _177
REMARK   69  A    between atoms: _176  and  _179
REMARK   70  A    between atoms: _179  and  _180
REMARK   71  A    between atoms: _180  and  _181
REMARK   72  A    between atoms: _184  and  _186
REMARK   73  A    between atoms: _186  and  _187
REMARK   74  A    between atoms: _190  and  _192
REMARK   75  A    between atoms: _192  and  _193
REMARK   76  A    between atoms: _192  and  _195
REMARK   77  A    between atoms: _198  and  _200
REMARK   78  A    between atoms: _200  and  _201
REMARK   79  A    between atoms: _200  and  _203
REMARK   80  A    between atoms: _203  and  _204
REMARK   81  A    between atoms: _204  and  _205
REMARK   82  A    between atoms: _210  and  _212
REMARK   83  A    between atoms: _212  and  _213
REMARK   84  A    between atoms: _212  and  _215
REMARK   85  A    between atoms: _215  and  _216
REMARK   86  A    between atoms: _216  and  _217
REMARK   87  A    between atoms: _220  and  _222
REMARK   88  A    between atoms: _222  and  _223
REMARK   89  A    between atoms: _222  and  _225
REMARK   90  A    between atoms: _225  and  _226
REMARK   91  A    between atoms: _229  and  _231
REMARK   92  A    between atoms: _231  and  _232
REMARK   93  A    between atoms: _231  and  _234
REMARK   94  A    between atoms: _234  and  _235
REMARK   95  A    between atoms: _238  and  _240
REMARK   96  A    between atoms: _240  and  _241
REMARK   97  A    between atoms: _240  and  _243
REMARK   98  A    between atoms: _246  and  _248
REMARK   99  A    between atoms: _248  and  _249
REMARK  100  A    between atoms: _248  and  _251
REMARK  101  A    between atoms: _251  and  _252
REMARK  102  A    between atoms: _257  and  _259
REMARK  103  A    between atoms: _259  and  _260
REMARK  104  A    between atoms: _259  and  _262
REMARK  105  A    between atoms: _262  and  _263
REMARK  106  A    between atoms: _263  and  _264
REMARK  107  A    between atoms: _267  and  _269
REMARK  108  A    between atoms: _269  and  _270
REMARK  109  A    between atoms: _269  and  _272
REMARK  110  A    between atoms: _272  and  _273
REMARK  111  A    between atoms: _276  and  _278
REMARK  112  A    between atoms: _278  and  _279
REMARK  113  A    between atoms: _278  and  _281
REMARK  114  A    between atoms: _281  and  _282
REMARK  115  A    between atoms: _285  and  _287
REMARK  116  A    between atoms: _287  and  _288
REMARK  117  A    between atoms: _287  and  _290
REMARK  118  A    between atoms: _290  and  _291
REMARK  119  A    between atoms: _296  and  _297
REMARK  120  A    between atoms: _299  and  _301
REMARK  121  A    between atoms: _301  and  _302
REMARK  122  A    between atoms: _301  and  _304
REMARK  123  A    between atoms: _304  and  _305
REMARK  124  A    between atoms: _308  and  _310
REMARK  125  A    between atoms: _310  and  _311
REMARK  126  A    between atoms: _310  and  _313
REMARK  127  A    between atoms: _313  and  _314
REMARK  128  A    between atoms: _314  and  _315
REMARK  129  A    between atoms: _317  and  _319
REMARK  130  A    between atoms: _319  and  _320
REMARK  131  A    between atoms: _319  and  _322
REMARK  132  A    between atoms: _322  and  _323
REMARK  133  A    between atoms: _326  and  _328
REMARK  134  A    between atoms: _328  and  _329
REMARK  135  A    between atoms: _332  and  _334
REMARK  136  A    between atoms: _334  and  _335
REMARK  137  A    between atoms: _334  and  _337
REMARK  138  A    between atoms: _337  and  _338
REMARK  139  A    between atoms: _340  and  _342
REMARK  140  A    between atoms: _342  and  _343
REMARK  141  A    between atoms: _342  and  _345
REMARK  142  A    between atoms: _345  and  _346
REMARK  143  A    between atoms: _349  and  _351
REMARK  144  A    between atoms: _351  and  _352
REMARK  145  A    between atoms: _351  and  _354
REMARK  146  A    between atoms: _354  and  _355
REMARK  147  A    between atoms: _355  and  _356
REMARK  148  A    between atoms: _358  and  _360
REMARK  149  A    between atoms: _360  and  _361
REMARK  150  A    between atoms: _360  and  _363
REMARK  151  A    between atoms: _366  and  _368
REMARK  152  A    between atoms: _368  and  _369
REMARK  153  A    between atoms: _368  and  _371
REMARK  154  A    between atoms: _371  and  _372
REMARK  155  A    between atoms: _375  and  _377
REMARK  156  A    between atoms: _377  and  _378
REMARK  157  A    between atoms: _377  and  _380
REMARK  158  A    between atoms: _380  and  _381
REMARK  159  A    between atoms: _384  and  _386
REMARK  160  A    between atoms: _386  and  _387
REMARK  161  A    between atoms: _386  and  _389
REMARK  162  A    between atoms: _389  and  _390
REMARK  163  A    between atoms: _392  and  _394
REMARK  164  A    between atoms: _394  and  _395
REMARK  165  A    between atoms: _394  and  _397
REMARK  166  A    between atoms: _397  and  _398
REMARK  167  A    between atoms: _398  and  _399
REMARK  168  A    between atoms: _402  and  _404
REMARK  169  A    between atoms: _404  and  _405
REMARK  170  A    between atoms: _404  and  _407
REMARK  171  A    between atoms: _407  and  _408
REMARK  172  A    between atoms: _414  and  _416
REMARK  173  A    between atoms: _416  and  _417
REMARK  174  A    between atoms: _416  and  _419
REMARK  175  A    between atoms: _419  and  _420
REMARK  176  A    between atoms: _420  and  _421
REMARK  177  A    between atoms: _423  and  _425
REMARK  178  A    between atoms: _425  and  _426
REMARK  179  A    between atoms: _425  and  _428
REMARK  180  A    between atoms: _428  and  _429
REMARK  181  A    between atoms: _432  and  _434
REMARK  182  A    between atoms: _434  and  _435
REMARK  183  A    between atoms: _434  and  _437
REMARK  184  A    between atoms: _437  and  _438
REMARK  185  A    between atoms: _441  and  _443
REMARK  186  A    between atoms: _443  and  _444
REMARK  187  A    between atoms: _443  and  _446
REMARK  188  A    between atoms: _446  and  _447
REMARK  189  A    between atoms: _450  and  _452
REMARK  190  A    between atoms: _452  and  _453
REMARK  191  A    between atoms: _452  and  _455
REMARK  192  A    between atoms: _455  and  _456
REMARK  193  A    between atoms: _462  and  _464
REMARK  194  A    between atoms: _464  and  _465
REMARK  195  A    between atoms: _464  and  _467
REMARK  196  A    between atoms: _467  and  _468
REMARK  197  A    between atoms: _474  and  _476
REMARK  198  A    between atoms: _476  and  _477
REMARK  199  A    between atoms: _476  and  _479
REMARK  200  A    between atoms: _479  and  _480
REMARK  201  A    between atoms: _480  and  _481
REMARK  202  A    between atoms: _483  and  _485
REMARK  203  A    between atoms: _485  and  _486
REMARK  204  A    between atoms: _485  and  _488
REMARK  205  A    between atoms: _488  and  _489
REMARK  206  A    between atoms: _489  and  _490
REMARK  207  A    between atoms: _490  and  _491
REMARK  208  A    between atoms: _491  and  _492
REMARK  209  A    between atoms: _496  and  _498
REMARK  210  A    between atoms: _498  and  _499
REMARK  211  A    between atoms: _498  and  _501
REMARK  212  A    between atoms: _501  and  _502
REMARK  213  A    between atoms: _508  and  _510
REMARK  214  A    between atoms: _510  and  _511
REMARK  215  A    between atoms: _510  and  _513
REMARK  216  A    between atoms: _513  and  _514
REMARK  217  A    between atoms: _517  and  _519
REMARK  218  A    between atoms: _519  and  _520
REMARK  219  A    between atoms: _519  and  _522
REMARK  220  A    between atoms: _522  and  _523
REMARK  221  A    between atoms: _526  and  _528
REMARK  222  A    between atoms: _528  and  _529
REMARK  223  A    between atoms: _528  and  _531
REMARK  224  A    between atoms: _534  and  _536
REMARK  225  A    between atoms: _536  and  _537
REMARK  226  A    between atoms: _536  and  _539
REMARK  227  A    between atoms: _539  and  _540
REMARK  228  A    between atoms: _545  and  _547
REMARK  229  A    between atoms: _547  and  _548
REMARK  230  A    between atoms: _547  and  _550
REMARK  231  A    between atoms: _553  and  _555
REMARK  232  A    between atoms: _555  and  _556
REMARK  233  A    between atoms: _555  and  _558
REMARK  234  A    between atoms: _558  and  _559
REMARK  235  A    between atoms: _562  and  _564
REMARK  236  A    between atoms: _564  and  _565
REMARK  237  A    between atoms: _564  and  _567
REMARK  238  A    between atoms: _567  and  _568
REMARK  239  A    between atoms: _571  and  _573
REMARK  240  A    between atoms: _573  and  _574
REMARK  241  A    between atoms: _573  and  _576
REMARK  242  A    between atoms: _576  and  _577
REMARK  243  A    between atoms: _580  and  _582
REMARK  244  A    between atoms: _582  and  _583
REMARK  245  A    between atoms: _582  and  _585
REMARK  246  A    between atoms: _585  and  _586
REMARK  247  A    between atoms: _586  and  _587
REMARK  248  A    between atoms: _589  and  _591
REMARK  249  A    between atoms: _591  and  _592
REMARK  250  A    between atoms: _591  and  _594
REMARK  251  A    between atoms: _594  and  _595
REMARK  252  A    between atoms: _597  and  _599
REMARK  253  A    between atoms: _599  and  _600
REMARK  254  A    between atoms: _599  and  _602
REMARK  255  A    between atoms: _602  and  _603
REMARK  256  A    between atoms: _606  and  _608
REMARK  257  A    between atoms: _608  and  _609
REMARK  258  A    between atoms: _608  and  _611
REMARK  259  A    between atoms: _611  and  _612
REMARK  260  A    between atoms: _617  and  _619
REMARK  261  A    between atoms: _619  and  _620
REMARK  262  A    between atoms: _619  and  _622
REMARK  263  A    between atoms: _622  and  _623
REMARK  264  A    between atoms: _626  and  _628
REMARK  265  A    between atoms: _628  and  _629
REMARK  266  A    between atoms: _628  and  _631
REMARK  267  A    between atoms: _631  and  _632
REMARK  268  A    between atoms: _632  and  _633
REMARK  269  A    between atoms: _638  and  _640
REMARK  270  A    between atoms: _640  and  _641
REMARK  271  A    between atoms: _640  and  _643
REMARK  272  A    between atoms: _643  and  _644
REMARK  273  A    between atoms: _647  and  _649
REMARK  274  A    between atoms: _649  and  _650
REMARK  275  A    between atoms: _649  and  _652
REMARK  276  A    between atoms: _652  and  _653
REMARK  277  A    between atoms: _658  and  _659
REMARK                            x       y       z     vdW  Elec       q    Type
REMARK                         _______ _______ _______ _____ _____    ______ ____
ROOT
ATOM      1  C   LEU A   1      17.944  20.814  26.417  0.00  0.00    +0.238 C 
ATOM      2  N   GLN A   2      18.323  21.997  26.883  0.00  0.00    -0.298 N 
ATOM      3  H   GLN A   2      17.843  22.859  26.554  0.00  0.00    +0.150 HD
ATOM      4  O   LEU A   1      18.477  19.753  26.761  0.00  0.00    -0.274 OA
ENDROOT
BRANCH   1   5
ATOM      5  CA  LEU A   1      16.807  20.828  25.406  0.00  0.00    +0.145 C 
BRANCH   5   6
ATOM      6  N   LEU A   1      15.834  21.876  25.704  0.00  0.00    -0.238 NA
ATOM      7  H   LEU A   1      15.753  22.687  25.057  0.00  0.00    +0.142 HD
ENDBRANCH   5   6
BRANCH   5   8
ATOM      8  CB  LEU A   1      17.393  21.032  24.010  0.00  0.00    +0.026 C 
BRANCH   8   9
ATOM      9  CG  LEU A   1      16.415  20.969  22.843  0.00  0.00    +0.002 C 
ATOM     10  CD2 LEU A   1      15.704  19.609  22.847  0.00  0.00    +0.000 C 
ATOM     11  CD1 LEU A   1      17.181  21.174  21.546  0.00  0.00    +0.000 C 
ENDBRANCH   8   9
ENDBRANCH   5   8
ENDBRANCH   1   5
BRANCH   2  12
ATOM     12  CA  GLN A   2      19.403  22.097  27.849  0.00  0.00    +0.137 C 
BRANCH  12  13
ATOM     13  C   GLN A   2      18.957  21.491  29.179  0.00  0.00    +0.227 C 
ATOM     14  O   GLN A   2      19.756  20.902  29.912  0.00  0.00    -0.286 OA
ENDBRANCH  12  13
BRANCH  12  15
ATOM     15  CB  GLN A   2      19.804  23.564  28.029  0.00  0.00    +0.037 C 
BRANCH  15  16
ATOM     16  CG  GLN A   2      21.120  23.760  28.750  0.00  0.00    +0.087 C 
BRANCH  16  17
ATOM     17  CD  GLN A   2      21.622  25.191  28.659  0.00  0.00    +0.219 C 
ATOM     18  OE1 GLN A   2      22.693  25.518  29.169  0.00  0.00    -0.275 OA
ATOM     19  NE2 GLN A   2      20.846  26.052  28.004  0.00  0.00    -0.329 N 
ATOM     20 HE21 GLN A   2      21.138  27.046  27.908  0.00  0.00    +0.145 HD
ATOM     21 HE22 GLN A   2      19.948  25.731  27.589  0.00  0.00    +0.145 HD
ENDBRANCH  16  17
ENDBRANCH  15  16
ENDBRANCH  12  15
ENDBRANCH   2  12
TORSDOF 9
REMARK  Name = ../refined-set-2016/2i4z/2i4z_pocket.pdb
REMARK  277 active torsions:
REMARK  status: ('A' for Active; 'I' for Inactive)
REMARK    1  A    between atoms: _1  and  _3
REMARK    2  A    between atoms: _3  and  _4
REMARK    3  A    between atoms: _3  and  _6
REMARK    4  A    between atoms: _6  and  _7
REMARK    5  A    between atoms: _12  and  _13
REMARK    6  A    between atoms: _15  and  _17
REMARK    7  A    between atoms: _17  and  _18
REMARK    8  A    between atoms: _17  and  _20
REMARK    9  A    between atoms: _20  and  _21
REMARK   10  A    between atoms: _23  and  _25
REMARK   11  A    between atoms: _25  and  _26
REMARK   12  A    between atoms: _25  and  _28
REMARK   13  A    between atoms: _28  and  _29
REMARK   14  A    between atoms: _36  and  _37
REMARK   15  A    between atoms: _42  and  _44
REMARK   16  A    between atoms: _44  and  _45
REMARK   17  A    between atoms: _44  and  _47
REMARK   18  A    between atoms: _47  and  _48
REMARK   19  A    between atoms: _51  and  _53
REMARK   20  A    between atoms: _53  and  _54
REMARK   21  A    between atoms: _53  and  _56
REMARK   22  A    between atoms: _56  and  _57
REMARK   23  A    between atoms: _63  and  _65
REMARK   24  A    between atoms: _65  and  _66
REMARK   25  A    between atoms: _65  and  _68
REMARK   26  A    between atoms: _68  and  _69
REMARK   27  A    between atoms: _72  and  _74
REMARK   28  A    between atoms: _74  and  _75
REMARK   29  A    between atoms: _74  and  _77
REMARK   30  A    between atoms: _77  and  _78
REMARK   31  A    between atoms: _81  and  _83
REMARK   32  A    between atoms: _83  and  _84
REMARK   33  A    between atoms: _83  and  _86
REMARK   34  A    between atoms: _86  and  _87
REMARK   35  A    between atoms: _93  and  _95
REMARK   36  A    between atoms: _95  and  _96
REMARK   37  A    between atoms: _95  and  _98
REMARK   38  A    between atoms: _98  and  _99
REMARK   39  A    between atoms: _99  and  _100
REMARK   40  A    between atoms: _105  and  _107
REMARK   41  A    between atoms: _107  and  _108
REMARK   42  A    between atoms: _110  and  _112
REMARK   43  A    between atoms: _112  and  _113
REMARK   44  A    between atoms: _112  and  _115
REMARK   45  A    between atoms: _117  and  _119
REMARK   46  A    between atoms: _119  and  _120
REMARK   47  A    between atoms: _119  and  _122
REMARK   48  A    between atoms: _122  and  _123
REMARK   49  A    between atoms: _123  and  _124
REMARK   50  A    between atoms: _129  and  _131
REMARK   51  A    between atoms: _131  and  _132
REMARK   52  A    between atoms: _131  and  _134
REMARK   53  A    between atoms: _134  and  _135
REMARK   54  A    between atoms: _141  and  _143
REMARK   55  A    between atoms: _143  and  _144
REMARK   56  A    between atoms: _143  and  _146
REMARK   57  A    between atoms: _146  and  _147
REMARK   58  A    between atoms: _147  and  _148
REMARK   59  A    between atoms: _148  and  _149
REMARK   60  A    between atoms: _158  and  _160
REMARK   61  A    between atoms: _160  and  _161
REMARK   62  A    between atoms: _160  and  _163
REMARK   63  A    between atoms: _163  and  _164
REMARK   64  A    between atoms: _166  and  _168
REMARK   65  A    between atoms: _168  and  _169
REMARK   66  A    between atoms: _168  and  _171
REMARK   67  A    between atoms: _174  and  _176
REMARK   68  A    between atoms: _176  and  _177
REMARK   69  A    between atoms: _176  and  _179
REMARK   70  A    between atoms: _179  and  _180
REMARK   71  A    between atoms: _180  and  _181
REMARK   72  A    between atoms: _184  and  _186
REMARK   73  A    between atoms: _186  and  _187
REMARK   74  A    between atoms: _190  and  _192
REMARK   75  A    between atoms: _192  and  _193
REMARK   76  A    between atoms: _192  and  _195
REMARK   77  A    between atoms: _198  and  _200
REMARK   78  A    between atoms: _200  and  _201
REMARK   79  A    between atoms: _200  and  _203
REMARK   80  A    between atoms: _203  and  _204
REMARK   81  A    between atoms: _204  and  _205
REMARK   82  A    between atoms: _210  and  _212
REMARK   83  A    between atoms: _212  and  _213
REMARK   84  A    between atoms: _212  and  _215
REMARK   85  A    between atoms: _215  and  _216
REMARK   86  A    between atoms: _216  and  _217
REMARK   87  A    between atoms: _220  and  _222
REMARK   88  A    between atoms: _222  and  _223
REMARK   89  A    between atoms: _222  and  _225
REMARK   90  A    between atoms: _225  and  _226
REMARK   91  A    between atoms: _229  and  _231
REMARK   92  A    between atoms: _231  and  _232
REMARK   93  A    between atoms: _231  and  _234
REMARK   94  A    between atoms: _234  and  _235
REMARK   95  A    between atoms: _238  and  _240
REMARK   96  A    between atoms: _240  and  _241
REMARK   97  A    between atoms: _240  and  _243
REMARK   98  A    between atoms: _246  and  _248
REMARK   99  A    between atoms: _248  and  _249
REMARK  100  A    between atoms: _248  and  _251
REMARK  101  A    between atoms: _251  and  _252
REMARK  102  A    between atoms: _257  and  _259
REMARK  103  A    between atoms: _259  and  _260
REMARK  104  A    between atoms: _259  and  _262
REMARK  105  A    between atoms: _262  and  _263
REMARK  106  A    between atoms: _263  and  _264
REMARK  107  A    between atoms: _267  and  _269
REMARK  108  A    between atoms: _269  and  _270
REMARK  109  A    between atoms: _269  and  _272
REMARK  110  A    between atoms: _272  and  _273
REMARK  111  A    between atoms: _276  and  _278
REMARK  112  A    between atoms: _278  and  _279
REMARK  113  A    between atoms: _278  and  _281
REMARK  114  A    between atoms: _281  and  _282
REMARK  115  A    between atoms: _285  and  _287
REMARK  116  A    between atoms: _287  and  _288
REMARK  117  A    between atoms: _287  and  _290
REMARK  118  A    between atoms: _290  and  _291
REMARK  119  A    between atoms: _296  and  _297
REMARK  120  A    between atoms: _299  and  _301
REMARK  121  A    between atoms: _301  and  _302
REMARK  122  A    between atoms: _301  and  _304
REMARK  123  A    between atoms: _304  and  _305
REMARK  124  A    between atoms: _308  and  _310
REMARK  125  A    between atoms: _310  and  _311
REMARK  126  A    between atoms: _310  and  _313
REMARK  127  A    between atoms: _313  and  _314
REMARK  128  A    between atoms: _314  and  _315
REMARK  129  A    between atoms: _317  and  _319
REMARK  130  A    between atoms: _319  and  _320
REMARK  131  A    between atoms: _319  and  _322
REMARK  132  A    between atoms: _322  and  _323
REMARK  133  A    between atoms: _326  and  _328
REMARK  134  A    between atoms: _328  and  _329
REMARK  135  A    between atoms: _332  and  _334
REMARK  136  A    between atoms: _334  and  _335
REMARK  137  A    between atoms: _334  and  _337
REMARK  138  A    between atoms: _337  and  _338
REMARK  139  A    between atoms: _340  and  _342
REMARK  140  A    between atoms: _342  and  _343
REMARK  141  A    between atoms: _342  and  _345
REMARK  142  A    between atoms: _345  and  _346
REMARK  143  A    between atoms: _349  and  _351
REMARK  144  A    between atoms: _351  and  _352
REMARK  145  A    between atoms: _351  and  _354
REMARK  146  A    between atoms: _354  and  _355
REMARK  147  A    between atoms: _355  and  _356
REMARK  148  A    between atoms: _358  and  _360
REMARK  149  A    between atoms: _360  and  _361
REMARK  150  A    between atoms: _360  and  _363
REMARK  151  A    between atoms: _366  and  _368
REMARK  152  A    between atoms: _368  and  _369
REMARK  153  A    between atoms: _368  and  _371
REMARK  154  A    between atoms: _371  and  _372
REMARK  155  A    between atoms: _375  and  _377
REMARK  156  A    between atoms: _377  and  _378
REMARK  157  A    between atoms: _377  and  _380
REMARK  158  A    between atoms: _380  and  _381
REMARK  159  A    between atoms: _384  and  _386
REMARK  160  A    between atoms: _386  and  _387
REMARK  161  A    between atoms: _386  and  _389
REMARK  162  A    between atoms: _389  and  _390
REMARK  163  A    between atoms: _392  and  _394
REMARK  164  A    between atoms: _394  and  _395
REMARK  165  A    between atoms: _394  and  _397
REMARK  166  A    between atoms: _397  and  _398
REMARK  167  A    between atoms: _398  and  _399
REMARK  168  A    between atoms: _402  and  _404
REMARK  169  A    between atoms: _404  and  _405
REMARK  170  A    between atoms: _404  and  _407
REMARK  171  A    between atoms: _407  and  _408
REMARK  172  A    between atoms: _414  and  _416
REMARK  173  A    between atoms: _416  and  _417
REMARK  174  A    between atoms: _416  and  _419
REMARK  175  A    between atoms: _419  and  _420
REMARK  176  A    between atoms: _420  and  _421
REMARK  177  A    between atoms: _423  and  _425
REMARK  178  A    between atoms: _425  and  _426
REMARK  179  A    between atoms: _425  and  _428
REMARK  180  A    between atoms: _428  and  _429
REMARK  181  A    between atoms: _432  and  _434
REMARK  182  A    between atoms: _434  and  _435
REMARK  183  A    between atoms: _434  and  _437
REMARK  184  A    between atoms: _437  and  _438
REMARK  185  A    between atoms: _441  and  _443
REMARK  186  A    between atoms: _443  and  _444
REMARK  187  A    between atoms: _443  and  _446
REMARK  188  A    between atoms: _446  and  _447
REMARK  189  A    between atoms: _450  and  _452
REMARK  190  A    between atoms: _452  and  _453
REMARK  191  A    between atoms: _452  and  _455
REMARK  192  A    between atoms: _455  and  _456
REMARK  193  A    between atoms: _462  and  _464
REMARK  194  A    between atoms: _464  and  _465
REMARK  195  A    between atoms: _464  and  _467
REMARK  196  A    between atoms: _467  and  _468
REMARK  197  A    between atoms: _474  and  _476
REMARK  198  A    between atoms: _476  and  _477
REMARK  199  A    between atoms: _476  and  _479
REMARK  200  A    between atoms: _479  and  _480
REMARK  201  A    between atoms: _480  and  _481
REMARK  202  A    between atoms: _483  and  _485
REMARK  203  A    between atoms: _485  and  _486
REMARK  204  A    between atoms: _485  and  _488
REMARK  205  A    between atoms: _488  and  _489
REMARK  206  A    between atoms: _489  and  _490
REMARK  207  A    between atoms: _490  and  _491
REMARK  208  A    between atoms: _491  and  _492
REMARK  209  A    between atoms: _496  and  _498
REMARK  210  A    between atoms: _498  and  _499
REMARK  211  A    between atoms: _498  and  _501
REMARK  212  A    between atoms: _501  and  _502
REMARK  213  A    between atoms: _508  and  _510
REMARK  214  A    between atoms: _510  and  _511
REMARK  215  A    between atoms: _510  and  _513
REMARK  216  A    between atoms: _513  and  _514
REMARK  217  A    between atoms: _517  and  _519
REMARK  218  A    between atoms: _519  and  _520
REMARK  219  A    between atoms: _519  and  _522
REMARK  220  A    between atoms: _522  and  _523
REMARK  221  A    between atoms: _526  and  _528
REMARK  222  A    between atoms: _528  and  _529
REMARK  223  A    between atoms: _528  and  _531
REMARK  224  A    between atoms: _534  and  _536
REMARK  225  A    between atoms: _536  and  _537
REMARK  226  A    between atoms: _536  and  _539
REMARK  227  A    between atoms: _539  and  _540
REMARK  228  A    between atoms: _545  and  _547
REMARK  229  A    between atoms: _547  and  _548
REMARK  230  A    between atoms: _547  and  _550
REMARK  231  A    between atoms: _553  and  _555
REMARK  232  A    between atoms: _555  and  _556
REMARK  233  A    between atoms: _555  and  _558
REMARK  234  A    between atoms: _558  and  _559
REMARK  235  A    between atoms: _562  and  _564
REMARK  236  A    between atoms: _564  and  _565
REMARK  237  A    between atoms: _564  and  _567
REMARK  238  A    between atoms: _567  and  _568
REMARK  239  A    between atoms: _571  and  _573
REMARK  240  A    between atoms: _573  and  _574
REMARK  241  A    between atoms: _573  and  _576
REMARK  242  A    between atoms: _576  and  _577
REMARK  243  A    between atoms: _580  and  _582
REMARK  244  A    between atoms: _582  and  _583
REMARK  245  A    between atoms: _582  and  _585
REMARK  246  A    between atoms: _585  and  _586
REMARK  247  A    between atoms: _586  and  _587
REMARK  248  A    between atoms: _589  and  _591
REMARK  249  A    between atoms: _591  and  _592
REMARK  250  A    between atoms: _591  and  _594
REMARK  251  A    between atoms: _594  and  _595
REMARK  252  A    between atoms: _597  and  _599
REMARK  253  A    between atoms: _599  and  _600
REMARK  254  A    between atoms: _599  and  _602
REMARK  255  A    between atoms: _602  and  _603
REMARK  256  A    between atoms: _606  and  _608
REMARK  257  A    between atoms: _608  and  _609
REMARK  258  A    between atoms: _608  and  _611
REMARK  259  A    between atoms: _611  and  _612
REMARK  260  A    between atoms: _617  and  _619
REMARK  261  A    between atoms: _619  and  _620
REMARK  262  A    between atoms: _619  and  _622
REMARK  263  A    between atoms: _622  and  _623
REMARK  264  A    between atoms: _626  and  _628
REMARK  265  A    between atoms: _628  and  _629
REMARK  266  A    between atoms: _628  and  _631
REMARK  267  A    between atoms: _631  and  _632
REMARK  268  A    between atoms: _632  and  _633
REMARK  269  A    between atoms: _638  and  _640
REMARK  270  A    between atoms: _640  and  _641
REMARK  271  A    between atoms: _640  and  _643
REMARK  272  A    between atoms: _643  and  _644
REMARK  273  A    between atoms: _647  and  _649
REMARK  274  A    between atoms: _649  and  _650
REMARK  275  A    between atoms: _649  and  _652
REMARK  276  A    between atoms: _652  and  _653
REMARK  277  A    between atoms: _658  and  _659
REMARK                            x       y       z     vdW  Elec       q    Type
REMARK                         _______ _______ _______ _____ _____    ______ ____
ROOT
ATOM      1  CA  TYR A   2      20.308  17.179  28.964  0.00  0.00    +0.141 C 
ENDROOT
BRANCH   1   4
ATOM      2  C   ILE A   1      17.956  16.916  29.563  0.00  0.00    +0.238 C 
ATOM      3  O   ILE A   1      18.165  15.826  30.088  0.00  0.00    -0.274 OA
ATOM      4  N   TYR A   2      18.921  17.642  29.003  0.00  0.00    -0.298 N 
ATOM      5  H   TYR A   2      18.683  18.563  28.582  0.00  0.00    +0.150 HD
BRANCH   2   6
ATOM      6  CA  ILE A   1      16.551  17.518  29.555  0.00  0.00    +0.145 C 
BRANCH   6   7
ATOM      7  N   ILE A   1      16.639  18.972  29.595  0.00  0.00    -0.238 NA
ATOM      8  H   ILE A   1      16.373  19.539  28.765  0.00  0.00    +0.142 HD
ENDBRANCH   6   7
BRANCH   6   9
ATOM      9  CB  ILE A   1      15.719  16.999  28.324  0.00  0.00    +0.025 C 
ATOM     10  CG2 ILE A   1      14.511  17.896  28.081  0.00  0.00    +0.002 C 
BRANCH   9  11
ATOM     11  CG1 ILE A   1      16.577  16.918  27.069  0.00  0.00    +0.002 C 
ATOM     12  CD1 ILE A   1      17.309  15.608  26.931  0.00  0.00    +0.000 C 
ENDBRANCH   9  11
ENDBRANCH   6   9
ENDBRANCH   2   6
ENDBRANCH   1   4
BRANCH   1  13
ATOM     13  C   TYR A   2      21.012  17.392  30.301  0.00  0.00    +0.227 C 
ATOM     14  O   TYR A   2      22.089  16.851  30.547  0.00  0.00    -0.286 OA
ENDBRANCH   1  13
BRANCH   1  15
ATOM     15  CB  TYR A   2      21.069  17.902  27.851  0.00  0.00    +0.054 C 
BRANCH  15  16
ATOM     16  CG  TYR A   2      20.814  17.320  26.481  0.00  0.00    -0.020 A 
ATOM     17  CD2 TYR A   2      20.744  15.938  26.296  0.00  0.00    -0.001 A 
ATOM     18  CE2 TYR A   2      20.518  15.391  25.038  0.00  0.00    +0.036 A 
ATOM     19  CZ  TYR A   2      20.356  16.228  23.951  0.00  0.00    +0.134 A 
ATOM     20  CE1 TYR A   2      20.420  17.602  24.110  0.00  0.00    +0.036 A 
ATOM     21  CD1 TYR A   2      20.649  18.141  25.368  0.00  0.00    -0.001 A 
BRANCH  19  22
ATOM     22  OH  TYR A   2      20.135  15.686  22.708  0.00  0.00    -0.506 OA
ATOM     23  HH  TYR A   2      20.041  16.414  22.044  0.00  0.00    +0.292 HD
ENDBRANCH  19  22
ENDBRANCH  15  16
ENDBRANCH   1  15
TORSDOF 9
REMARK  Name = ../refined-set-2016/2i4z/2i4z_pocket.pdb
REMARK  277 active torsions:
REMARK  status: ('A' for Active; 'I' for Inactive)
REMARK    1  A    between atoms: _1  and  _3
REMARK    2  A    between atoms: _3  and  _4
REMARK    3  A    between atoms: _3  and  _6
REMARK    4  A    between atoms: _6  and  _7
REMARK    5  A    between atoms: _12  and  _13
REMARK    6  A    between atoms: _15  and  _17
REMARK    7  A    between atoms: _17  and  _18
REMARK    8  A    between atoms: _17  and  _20
REMARK    9  A    between atoms: _20  and  _21
REMARK   10  A    between atoms: _23  and  _25
REMARK   11  A    between atoms: _25  and  _26
REMARK   12  A    between atoms: _25  and  _28
REMARK   13  A    between atoms: _28  and  _29
REMARK   14  A    between atoms: _36  and  _37
REMARK   15  A    between atoms: _42  and  _44
REMARK   16  A    between atoms: _44  and  _45
REMARK   17  A    between atoms: _44  and  _47
REMARK   18  A    between atoms: _47  and  _48
REMARK   19  A    between atoms: _51  and  _53
REMARK   20  A    between atoms: _53  and  _54
REMARK   21  A    between atoms: _53  and  _56
REMARK   22  A    between atoms: _56  and  _57
REMARK   23  A    between atoms: _63  and  _65
REMARK   24  A    between atoms: _65  and  _66
REMARK   25  A    between atoms: _65  and  _68
REMARK   26  A    between atoms: _68  and  _69
REMARK   27  A    between atoms: _72  and  _74
REMARK   28  A    between atoms: _74  and  _75
REMARK   29  A    between atoms: _74  and  _77
REMARK   30  A    between atoms: _77  and  _78
REMARK   31  A    between atoms: _81  and  _83
REMARK   32  A    between atoms: _83  and  _84
REMARK   33  A    between atoms: _83  and  _86
REMARK   34  A    between atoms: _86  and  _87
REMARK   35  A    between atoms: _93  and  _95
REMARK   36  A    between atoms: _95  and  _96
REMARK   37  A    between atoms: _95  and  _98
REMARK   38  A    between atoms: _98  and  _99
REMARK   39  A    between atoms: _99  and  _100
REMARK   40  A    between atoms: _105  and  _107
REMARK   41  A    between atoms: _107  and  _108
REMARK   42  A    between atoms: _110  and  _112
REMARK   43  A    between atoms: _112  and  _113
REMARK   44  A    between atoms: _112  and  _115
REMARK   45  A    between atoms: _117  and  _119
REMARK   46  A    between atoms: _119  and  _120
REMARK   47  A    between atoms: _119  and  _122
REMARK   48  A    between atoms: _122  and  _123
REMARK   49  A    between atoms: _123  and  _124
REMARK   50  A    between atoms: _129  and  _131
REMARK   51  A    between atoms: _131  and  _132
REMARK   52  A    between atoms: _131  and  _134
REMARK   53  A    between atoms: _134  and  _135
REMARK   54  A    between atoms: _141  and  _143
REMARK   55  A    between atoms: _143  and  _144
REMARK   56  A    between atoms: _143  and  _146
REMARK   57  A    between atoms: _146  and  _147
REMARK   58  A    between atoms: _147  and  _148
REMARK   59  A    between atoms: _148  and  _149
REMARK   60  A    between atoms: _158  and  _160
REMARK   61  A    between atoms: _160  and  _161
REMARK   62  A    between atoms: _160  and  _163
REMARK   63  A    between atoms: _163  and  _164
REMARK   64  A    between atoms: _166  and  _168
REMARK   65  A    between atoms: _168  and  _169
REMARK   66  A    between atoms: _168  and  _171
REMARK   67  A    between atoms: _174  and  _176
REMARK   68  A    between atoms: _176  and  _177
REMARK   69  A    between atoms: _176  and  _179
REMARK   70  A    between atoms: _179  and  _180
REMARK   71  A    between atoms: _180  and  _181
REMARK   72  A    between atoms: _184  and  _186
REMARK   73  A    between atoms: _186  and  _187
REMARK   74  A    between atoms: _190  and  _192
REMARK   75  A    between atoms: _192  and  _193
REMARK   76  A    between atoms: _192  and  _195
REMARK   77  A    between atoms: _198  and  _200
REMARK   78  A    between atoms: _200  and  _201
REMARK   79  A    between atoms: _200  and  _203
REMARK   80  A    between atoms: _203  and  _204
REMARK   81  A    between atoms: _204  and  _205
REMARK   82  A    between atoms: _210  and  _212
REMARK   83  A    between atoms: _212  and  _213
REMARK   84  A    between atoms: _212  and  _215
REMARK   85  A    between atoms: _215  and  _216
REMARK   86  A    between atoms: _216  and  _217
REMARK   87  A    between atoms: _220  and  _222
REMARK   88  A    between atoms: _222  and  _223
REMARK   89  A    between atoms: _222  and  _225
REMARK   90  A    between atoms: _225  and  _226
REMARK   91  A    between atoms: _229  and  _231
REMARK   92  A    between atoms: _231  and  _232
REMARK   93  A    between atoms: _231  and  _234
REMARK   94  A    between atoms: _234  and  _235
REMARK   95  A    between atoms: _238  and  _240
REMARK   96  A    between atoms: _240  and  _241
REMARK   97  A    between atoms: _240  and  _243
REMARK   98  A    between atoms: _246  and  _248
REMARK   99  A    between atoms: _248  and  _249
REMARK  100  A    between atoms: _248  and  _251
REMARK  101  A    between atoms: _251  and  _252
REMARK  102  A    between atoms: _257  and  _259
REMARK  103  A    between atoms: _259  and  _260
REMARK  104  A    between atoms: _259  and  _262
REMARK  105  A    between atoms: _262  and  _263
REMARK  106  A    between atoms: _263  and  _264
REMARK  107  A    between atoms: _267  and  _269
REMARK  108  A    between atoms: _269  and  _270
REMARK  109  A    between atoms: _269  and  _272
REMARK  110  A    between atoms: _272  and  _273
REMARK  111  A    between atoms: _276  and  _278
REMARK  112  A    between atoms: _278  and  _279
REMARK  113  A    between atoms: _278  and  _281
REMARK  114  A    between atoms: _281  and  _282
REMARK  115  A    between atoms: _285  and  _287
REMARK  116  A    between atoms: _287  and  _288
REMARK  117  A    between atoms: _287  and  _290
REMARK  118  A    between atoms: _290  and  _291
REMARK  119  A    between atoms: _296  and  _297
REMARK  120  A    between atoms: _299  and  _301
REMARK  121  A    between atoms: _301  and  _302
REMARK  122  A    between atoms: _301  and  _304
REMARK  123  A    between atoms: _304  and  _305
REMARK  124  A    between atoms: _308  and  _310
REMARK  125  A    between atoms: _310  and  _311
REMARK  126  A    between atoms: _310  and  _313
REMARK  127  A    between atoms: _313  and  _314
REMARK  128  A    between atoms: _314  and  _315
REMARK  129  A    between atoms: _317  and  _319
REMARK  130  A    between atoms: _319  and  _320
REMARK  131  A    between atoms: _319  and  _322
REMARK  132  A    between atoms: _322  and  _323
REMARK  133  A    between atoms: _326  and  _328
REMARK  134  A    between atoms: _328  and  _329
REMARK  135  A    between atoms: _332  and  _334
REMARK  136  A    between atoms: _334  and  _335
REMARK  137  A    between atoms: _334  and  _337
REMARK  138  A    between atoms: _337  and  _338
REMARK  139  A    between atoms: _340  and  _342
REMARK  140  A    between atoms: _342  and  _343
REMARK  141  A    between atoms: _342  and  _345
REMARK  142  A    between atoms: _345  and  _346
REMARK  143  A    between atoms: _349  and  _351
REMARK  144  A    between atoms: _351  and  _352
REMARK  145  A    between atoms: _351  and  _354
REMARK  146  A    between atoms: _354  and  _355
REMARK  147  A    between atoms: _355  and  _356
REMARK  148  A    between atoms: _358  and  _360
REMARK  149  A    between atoms: _360  and  _361
REMARK  150  A    between atoms: _360  and  _363
REMARK  151  A    between atoms: _366  and  _368
REMARK  152  A    between atoms: _368  and  _369
REMARK  153  A    between atoms: _368  and  _371
REMARK  154  A    between atoms: _371  and  _372
REMARK  155  A    between atoms: _375  and  _377
REMARK  156  A    between atoms: _377  and  _378
REMARK  157  A    between atoms: _377  and  _380
REMARK  158  A    between atoms: _380  and  _381
REMARK  159  A    between atoms: _384  and  _386
REMARK  160  A    between atoms: _386  and  _387
REMARK  161  A    between atoms: _386  and  _389
REMARK  162  A    between atoms: _389  and  _390
REMARK  163  A    between atoms: _392  and  _394
REMARK  164  A    between atoms: _394  and  _395
REMARK  165  A    between atoms: _394  and  _397
REMARK  166  A    between atoms: _397  and  _398
REMARK  167  A    between atoms: _398  and  _399
REMARK  168  A    between atoms: _402  and  _404
REMARK  169  A    between atoms: _404  and  _405
REMARK  170  A    between atoms: _404  and  _407
REMARK  171  A    between atoms: _407  and  _408
REMARK  172  A    between atoms: _414  and  _416
REMARK  173  A    between atoms: _416  and  _417
REMARK  174  A    between atoms: _416  and  _419
REMARK  175  A    between atoms: _419  and  _420
REMARK  176  A    between atoms: _420  and  _421
REMARK  177  A    between atoms: _423  and  _425
REMARK  178  A    between atoms: _425  and  _426
REMARK  179  A    between atoms: _425  and  _428
REMARK  180  A    between atoms: _428  and  _429
REMARK  181  A    between atoms: _432  and  _434
REMARK  182  A    between atoms: _434  and  _435
REMARK  183  A    between atoms: _434  and  _437
REMARK  184  A    between atoms: _437  and  _438
REMARK  185  A    between atoms: _441  and  _443
REMARK  186  A    between atoms: _443  and  _444
REMARK  187  A    between atoms: _443  and  _446
REMARK  188  A    between atoms: _446  and  _447
REMARK  189  A    between atoms: _450  and  _452
REMARK  190  A    between atoms: _452  and  _453
REMARK  191  A    between atoms: _452  and  _455
REMARK  192  A    between atoms: _455  and  _456
REMARK  193  A    between atoms: _462  and  _464
REMARK  194  A    between atoms: _464  and  _465
REMARK  195  A    between atoms: _464  and  _467
REMARK  196  A    between atoms: _467  and  _468
REMARK  197  A    between atoms: _474  and  _476
REMARK  198  A    between atoms: _476  and  _477
REMARK  199  A    between atoms: _476  and  _479
REMARK  200  A    between atoms: _479  and  _480
REMARK  201  A    between atoms: _480  and  _481
REMARK  202  A    between atoms: _483  and  _485
REMARK  203  A    between atoms: _485  and  _486
REMARK  204  A    between atoms: _485  and  _488
REMARK  205  A    between atoms: _488  and  _489
REMARK  206  A    between atoms: _489  and  _490
REMARK  207  A    between atoms: _490  and  _491
REMARK  208  A    between atoms: _491  and  _492
REMARK  209  A    between atoms: _496  and  _498
REMARK  210  A    between atoms: _498  and  _499
REMARK  211  A    between atoms: _498  and  _501
REMARK  212  A    between atoms: _501  and  _502
REMARK  213  A    between atoms: _508  and  _510
REMARK  214  A    between atoms: _510  and  _511
REMARK  215  A    between atoms: _510  and  _513
REMARK  216  A    between atoms: _513  and  _514
REMARK  217  A    between atoms: _517  and  _519
REMARK  218  A    between atoms: _519  and  _520
REMARK  219  A    between atoms: _519  and  _522
REMARK  220  A    between atoms: _522  and  _523
REMARK  221  A    between atoms: _526  and  _528
REMARK  222  A    between atoms: _528  and  _529
REMARK  223  A    between atoms: _528  and  _531
REMARK  224  A    between atoms: _534  and  _536
REMARK  225  A    between atoms: _536  and  _537
REMARK  226  A    between atoms: _536  and  _539
REMARK  227  A    between atoms: _539  and  _540
REMARK  228  A    between atoms: _545  and  _547
REMARK  229  A    between atoms: _547  and  _548
REMARK  230  A    between atoms: _547  and  _550
REMARK  231  A    between atoms: _553  and  _555
REMARK  232  A    between atoms: _555  and  _556
REMARK  233  A    between atoms: _555  and  _558
REMARK  234  A    between atoms: _558  and  _559
REMARK  235  A    between atoms: _562  and  _564
REMARK  236  A    between atoms: _564  and  _565
REMARK  237  A    between atoms: _564  and  _567
REMARK  238  A    between atoms: _567  and  _568
REMARK  239  A    between atoms: _571  and  _573
REMARK  240  A    between atoms: _573  and  _574
REMARK  241  A    between atoms: _573  and  _576
REMARK  242  A    between atoms: _576  and  _577
REMARK  243  A    between atoms: _580  and  _582
REMARK  244  A    between atoms: _582  and  _583
REMARK  245  A    between atoms: _582  and  _585
REMARK  246  A    between atoms: _585  and  _586
REMARK  247  A    between atoms: _586  and  _587
REMARK  248  A    between atoms: _589  and  _591
REMARK  249  A    between atoms: _591  and  _592
REMARK  250  A    between atoms: _591  and  _594
REMARK  251  A    between atoms: _594  and  _595
REMARK  252  A    between atoms: _597  and  _599
REMARK  253  A    between atoms: _599  and  _600
REMARK  254  A    between atoms: _599  and  _602
REMARK  255  A    between atoms: _602  and  _603
REMARK  256  A    between atoms: _606  and  _608
REMARK  257  A    between atoms: _608  and  _609
REMARK  258  A    between atoms: _608  and  _611
REMARK  259  A    between atoms: _611  and  _612
REMARK  260  A    between atoms: _617  and  _619
REMARK  261  A    between atoms: _619  and  _620
REMARK  262  A    between atoms: _619  and  _622
REMARK  263  A    between atoms: _622  and  _623
REMARK  264  A    between atoms: _626  and  _628
REMARK  265  A    between atoms: _628  and  _629
REMARK  266  A    between atoms: _628  and  _631
REMARK  267  A    between atoms: _631  and  _632
REMARK  268  A    between atoms: _632  and  _633
REMARK  269  A    between atoms: _638  and  _640
REMARK  270  A    between atoms: _640  and  _641
REMARK  271  A    between atoms: _640  and  _643
REMARK  272  A    between atoms: _643  and  _644
REMARK  273  A    between atoms: _647  and  _649
REMARK  274  A    between atoms: _649  and  _650
REMARK  275  A    between atoms: _649  and  _652
REMARK  276  A    between atoms: _652  and  _653
REMARK  277  A    between atoms: _658  and  _659
REMARK                            x       y       z     vdW  Elec       q    Type
REMARK                         _______ _______ _______ _____ _____    ______ ____
ROOT
ATOM      1  O   HOH     1      20.826  19.688  22.469  0.00  0.00    +0.000 OA
ENDROOT
TORSDOF 0
REMARK  Name = ../refined-set-2016/2i4z/2i4z_pocket.pdb
REMARK  277 active torsions:
REMARK  status: ('A' for Active; 'I' for Inactive)
REMARK    1  A    between atoms: _1  and  _3
REMARK    2  A    between atoms: _3  and  _4
REMARK    3  A    between atoms: _3  and  _6
REMARK    4  A    between atoms: _6  and  _7
REMARK    5  A    between atoms: _12  and  _13
REMARK    6  A    between atoms: _15  and  _17
REMARK    7  A    between atoms: _17  and  _18
REMARK    8  A    between atoms: _17  and  _20
REMARK    9  A    between atoms: _20  and  _21
REMARK   10  A    between atoms: _23  and  _25
REMARK   11  A    between atoms: _25  and  _26
REMARK   12  A    between atoms: _25  and  _28
REMARK   13  A    between atoms: _28  and  _29
REMARK   14  A    between atoms: _36  and  _37
REMARK   15  A    between atoms: _42  and  _44
REMARK   16  A    between atoms: _44  and  _45
REMARK   17  A    between atoms: _44  and  _47
REMARK   18  A    between atoms: _47  and  _48
REMARK   19  A    between atoms: _51  and  _53
REMARK   20  A    between atoms: _53  and  _54
REMARK   21  A    between atoms: _53  and  _56
REMARK   22  A    between atoms: _56  and  _57
REMARK   23  A    between atoms: _63  and  _65
REMARK   24  A    between atoms: _65  and  _66
REMARK   25  A    between atoms: _65  and  _68
REMARK   26  A    between atoms: _68  and  _69
REMARK   27  A    between atoms: _72  and  _74
REMARK   28  A    between atoms: _74  and  _75
REMARK   29  A    between atoms: _74  and  _77
REMARK   30  A    between atoms: _77  and  _78
REMARK   31  A    between atoms: _81  and  _83
REMARK   32  A    between atoms: _83  and  _84
REMARK   33  A    between atoms: _83  and  _86
REMARK   34  A    between atoms: _86  and  _87
REMARK   35  A    between atoms: _93  and  _95
REMARK   36  A    between atoms: _95  and  _96
REMARK   37  A    between atoms: _95  and  _98
REMARK   38  A    between atoms: _98  and  _99
REMARK   39  A    between atoms: _99  and  _100
REMARK   40  A    between atoms: _105  and  _107
REMARK   41  A    between atoms: _107  and  _108
REMARK   42  A    between atoms: _110  and  _112
REMARK   43  A    between atoms: _112  and  _113
REMARK   44  A    between atoms: _112  and  _115
REMARK   45  A    between atoms: _117  and  _119
REMARK   46  A    between atoms: _119  and  _120
REMARK   47  A    between atoms: _119  and  _122
REMARK   48  A    between atoms: _122  and  _123
REMARK   49  A    between atoms: _123  and  _124
REMARK   50  A    between atoms: _129  and  _131
REMARK   51  A    between atoms: _131  and  _132
REMARK   52  A    between atoms: _131  and  _134
REMARK   53  A    between atoms: _134  and  _135
REMARK   54  A    between atoms: _141  and  _143
REMARK   55  A    between atoms: _143  and  _144
REMARK   56  A    between atoms: _143  and  _146
REMARK   57  A    between atoms: _146  and  _147
REMARK   58  A    between atoms: _147  and  _148
REMARK   59  A    between atoms: _148  and  _149
REMARK   60  A    between atoms: _158  and  _160
REMARK   61  A    between atoms: _160  and  _161
REMARK   62  A    between atoms: _160  and  _163
REMARK   63  A    between atoms: _163  and  _164
REMARK   64  A    between atoms: _166  and  _168
REMARK   65  A    between atoms: _168  and  _169
REMARK   66  A    between atoms: _168  and  _171
REMARK   67  A    between atoms: _174  and  _176
REMARK   68  A    between atoms: _176  and  _177
REMARK   69  A    between atoms: _176  and  _179
REMARK   70  A    between atoms: _179  and  _180
REMARK   71  A    between atoms: _180  and  _181
REMARK   72  A    between atoms: _184  and  _186
REMARK   73  A    between atoms: _186  and  _187
REMARK   74  A    between atoms: _190  and  _192
REMARK   75  A    between atoms: _192  and  _193
REMARK   76  A    between atoms: _192  and  _195
REMARK   77  A    between atoms: _198  and  _200
REMARK   78  A    between atoms: _200  and  _201
REMARK   79  A    between atoms: _200  and  _203
REMARK   80  A    between atoms: _203  and  _204
REMARK   81  A    between atoms: _204  and  _205
REMARK   82  A    between atoms: _210  and  _212
REMARK   83  A    between atoms: _212  and  _213
REMARK   84  A    between atoms: _212  and  _215
REMARK   85  A    between atoms: _215  and  _216
REMARK   86  A    between atoms: _216  and  _217
REMARK   87  A    between atoms: _220  and  _222
REMARK   88  A    between atoms: _222  and  _223
REMARK   89  A    between atoms: _222  and  _225
REMARK   90  A    between atoms: _225  and  _226
REMARK   91  A    between atoms: _229  and  _231
REMARK   92  A    between atoms: _231  and  _232
REMARK   93  A    between atoms: _231  and  _234
REMARK   94  A    between atoms: _234  and  _235
REMARK   95  A    between atoms: _238  and  _240
REMARK   96  A    between atoms: _240  and  _241
REMARK   97  A    between atoms: _240  and  _243
REMARK   98  A    between atoms: _246  and  _248
REMARK   99  A    between atoms: _248  and  _249
REMARK  100  A    between atoms: _248  and  _251
REMARK  101  A    between atoms: _251  and  _252
REMARK  102  A    between atoms: _257  and  _259
REMARK  103  A    between atoms: _259  and  _260
REMARK  104  A    between atoms: _259  and  _262
REMARK  105  A    between atoms: _262  and  _263
REMARK  106  A    between atoms: _263  and  _264
REMARK  107  A    between atoms: _267  and  _269
REMARK  108  A    between atoms: _269  and  _270
REMARK  109  A    between atoms: _269  and  _272
REMARK  110  A    between atoms: _272  and  _273
REMARK  111  A    between atoms: _276  and  _278
REMARK  112  A    between atoms: _278  and  _279
REMARK  113  A    between atoms: _278  and  _281
REMARK  114  A    between atoms: _281  and  _282
REMARK  115  A    between atoms: _285  and  _287
REMARK  116  A    between atoms: _287  and  _288
REMARK  117  A    between atoms: _287  and  _290
REMARK  118  A    between atoms: _290  and  _291
REMARK  119  A    between atoms: _296  and  _297
REMARK  120  A    between atoms: _299  and  _301
REMARK  121  A    between atoms: _301  and  _302
REMARK  122  A    between atoms: _301  and  _304
REMARK  123  A    between atoms: _304  and  _305
REMARK  124  A    between atoms: _308  and  _310
REMARK  125  A    between atoms: _310  and  _311
REMARK  126  A    between atoms: _310  and  _313
REMARK  127  A    between atoms: _313  and  _314
REMARK  128  A    between atoms: _314  and  _315
REMARK  129  A    between atoms: _317  and  _319
REMARK  130  A    between atoms: _319  and  _320
REMARK  131  A    between atoms: _319  and  _322
REMARK  132  A    between atoms: _322  and  _323
REMARK  133  A    between atoms: _326  and  _328
REMARK  134  A    between atoms: _328  and  _329
REMARK  135  A    between atoms: _332  and  _334
REMARK  136  A    between atoms: _334  and  _335
REMARK  137  A    between atoms: _334  and  _337
REMARK  138  A    between atoms: _337  and  _338
REMARK  139  A    between atoms: _340  and  _342
REMARK  140  A    between atoms: _342  and  _343
REMARK  141  A    between atoms: _342  and  _345
REMARK  142  A    between atoms: _345  and  _346
REMARK  143  A    between atoms: _349  and  _351
REMARK  144  A    between atoms: _351  and  _352
REMARK  145  A    between atoms: _351  and  _354
REMARK  146  A    between atoms: _354  and  _355
REMARK  147  A    between atoms: _355  and  _356
REMARK  148  A    between atoms: _358  and  _360
REMARK  149  A    between atoms: _360  and  _361
REMARK  150  A    between atoms: _360  and  _363
REMARK  151  A    between atoms: _366  and  _368
REMARK  152  A    between atoms: _368  and  _369
REMARK  153  A    between atoms: _368  and  _371
REMARK  154  A    between atoms: _371  and  _372
REMARK  155  A    between atoms: _375  and  _377
REMARK  156  A    between atoms: _377  and  _378
REMARK  157  A    between atoms: _377  and  _380
REMARK  158  A    between atoms: _380  and  _381
REMARK  159  A    between atoms: _384  and  _386
REMARK  160  A    between atoms: _386  and  _387
REMARK  161  A    between atoms: _386  and  _389
REMARK  162  A    between atoms: _389  and  _390
REMARK  163  A    between atoms: _392  and  _394
REMARK  164  A    between atoms: _394  and  _395
REMARK  165  A    between atoms: _394  and  _397
REMARK  166  A    between atoms: _397  and  _398
REMARK  167  A    between atoms: _398  and  _399
REMARK  168  A    between atoms: _402  and  _404
REMARK  169  A    between atoms: _404  and  _405
REMARK  170  A    between atoms: _404  and  _407
REMARK  171  A    between atoms: _407  and  _408
REMARK  172  A    between atoms: _414  and  _416
REMARK  173  A    between atoms: _416  and  _417
REMARK  174  A    between atoms: _416  and  _419
REMARK  175  A    between atoms: _419  and  _420
REMARK  176  A    between atoms: _420  and  _421
REMARK  177  A    between atoms: _423  and  _425
REMARK  178  A    between atoms: _425  and  _426
REMARK  179  A    between atoms: _425  and  _428
REMARK  180  A    between atoms: _428  and  _429
REMARK  181  A    between atoms: _432  and  _434
REMARK  182  A    between atoms: _434  and  _435
REMARK  183  A    between atoms: _434  and  _437
REMARK  184  A    between atoms: _437  and  _438
REMARK  185  A    between atoms: _441  and  _443
REMARK  186  A    between atoms: _443  and  _444
REMARK  187  A    between atoms: _443  and  _446
REMARK  188  A    between atoms: _446  and  _447
REMARK  189  A    between atoms: _450  and  _452
REMARK  190  A    between atoms: _452  and  _453
REMARK  191  A    between atoms: _452  and  _455
REMARK  192  A    between atoms: _455  and  _456
REMARK  193  A    between atoms: _462  and  _464
REMARK  194  A    between atoms: _464  and  _465
REMARK  195  A    between atoms: _464  and  _467
REMARK  196  A    between atoms: _467  and  _468
REMARK  197  A    between atoms: _474  and  _476
REMARK  198  A    between atoms: _476  and  _477
REMARK  199  A    between atoms: _476  and  _479
REMARK  200  A    between atoms: _479  and  _480
REMARK  201  A    between atoms: _480  and  _481
REMARK  202  A    between atoms: _483  and  _485
REMARK  203  A    between atoms: _485  and  _486
REMARK  204  A    between atoms: _485  and  _488
REMARK  205  A    between atoms: _488  and  _489
REMARK  206  A    between atoms: _489  and  _490
REMARK  207  A    between atoms: _490  and  _491
REMARK  208  A    between atoms: _491  and  _492
REMARK  209  A    between atoms: _496  and  _498
REMARK  210  A    between atoms: _498  and  _499
REMARK  211  A    between atoms: _498  and  _501
REMARK  212  A    between atoms: _501  and  _502
REMARK  213  A    between atoms: _508  and  _510
REMARK  214  A    between atoms: _510  and  _511
REMARK  215  A    between atoms: _510  and  _513
REMARK  216  A    between atoms: _513  and  _514
REMARK  217  A    between atoms: _517  and  _519
REMARK  218  A    between atoms: _519  and  _520
REMARK  219  A    between atoms: _519  and  _522
REMARK  220  A    between atoms: _522  and  _523
REMARK  221  A    between atoms: _526  and  _528
REMARK  222  A    between atoms: _528  and  _529
REMARK  223  A    between atoms: _528  and  _531
REMARK  224  A    between atoms: _534  and  _536
REMARK  225  A    between atoms: _536  and  _537
REMARK  226  A    between atoms: _536  and  _539
REMARK  227  A    between atoms: _539  and  _540
REMARK  228  A    between atoms: _545  and  _547
REMARK  229  A    between atoms: _547  and  _548
REMARK  230  A    between atoms: _547  and  _550
REMARK  231  A    between atoms: _553  and  _555
REMARK  232  A    between atoms: _555  and  _556
REMARK  233  A    between atoms: _555  and  _558
REMARK  234  A    between atoms: _558  and  _559
REMARK  235  A    between atoms: _562  and  _564
REMARK  236  A    between atoms: _564  and  _565
REMARK  237  A    between atoms: _564  and  _567
REMARK  238  A    between atoms: _567  and  _568
REMARK  239  A    between atoms: _571  and  _573
REMARK  240  A    between atoms: _573  and  _574
REMARK  241  A    between atoms: _573  and  _576
REMARK  242  A    between atoms: _576  and  _577
REMARK  243  A    between atoms: _580  and  _582
REMARK  244  A    between atoms: _582  and  _583
REMARK  245  A    between atoms: _582  and  _585
REMARK  246  A    between atoms: _585  and  _586
REMARK  247  A    between atoms: _586  and  _587
REMARK  248  A    between atoms: _589  and  _591
REMARK  249  A    between atoms: _591  and  _592
REMARK  250  A    between atoms: _591  and  _594
REMARK  251  A    between atoms: _594  and  _595
REMARK  252  A    between atoms: _597  and  _599
REMARK  253  A    between atoms: _599  and  _600
REMARK  254  A    between atoms: _599  and  _602
REMARK  255  A    between atoms: _602  and  _603
REMARK  256  A    between atoms: _606  and  _608
REMARK  257  A    between atoms: _608  and  _609
REMARK  258  A    between atoms: _608  and  _611
REMARK  259  A    between atoms: _611  and  _612
REMARK  260  A    between atoms: _617  and  _619
REMARK  261  A    between atoms: _619  and  _620
REMARK  262  A    between atoms: _619  and  _622
REMARK  263  A    between atoms: _622  and  _623
REMARK  264  A    between atoms: _626  and  _628
REMARK  265  A    between atoms: _628  and  _629
REMARK  266  A    between atoms: _628  and  _631
REMARK  267  A    between atoms: _631  and  _632
REMARK  268  A    between atoms: _632  and  _633
REMARK  269  A    between atoms: _638  and  _640
REMARK  270  A    between atoms: _640  and  _641
REMARK  271  A    between atoms: _640  and  _643
REMARK  272  A    between atoms: _643  and  _644
REMARK  273  A    between atoms: _647  and  _649
REMARK  274  A    between atoms: _649  and  _650
REMARK  275  A    between atoms: _649  and  _652
REMARK  276  A    between atoms: _652  and  _653
REMARK  277  A    between atoms: _658  and  _659
REMARK                            x       y       z     vdW  Elec       q    Type
REMARK                         _______ _______ _______ _____ _____    ______ ____
ROOT
ATOM      1  O   HOH     1       7.778   7.512  12.438  0.00  0.00    +0.000 OA
ENDROOT
TORSDOF 0
REMARK  Name = ../refined-set-2016/2i4z/2i4z_pocket.pdb
REMARK  277 active torsions:
REMARK  status: ('A' for Active; 'I' for Inactive)
REMARK    1  A    between atoms: _1  and  _3
REMARK    2  A    between atoms: _3  and  _4
REMARK    3  A    between atoms: _3  and  _6
REMARK    4  A    between atoms: _6  and  _7
REMARK    5  A    between atoms: _12  and  _13
REMARK    6  A    between atoms: _15  and  _17
REMARK    7  A    between atoms: _17  and  _18
REMARK    8  A    between atoms: _17  and  _20
REMARK    9  A    between atoms: _20  and  _21
REMARK   10  A    between atoms: _23  and  _25
REMARK   11  A    between atoms: _25  and  _26
REMARK   12  A    between atoms: _25  and  _28
REMARK   13  A    between atoms: _28  and  _29
REMARK   14  A    between atoms: _36  and  _37
REMARK   15  A    between atoms: _42  and  _44
REMARK   16  A    between atoms: _44  and  _45
REMARK   17  A    between atoms: _44  and  _47
REMARK   18  A    between atoms: _47  and  _48
REMARK   19  A    between atoms: _51  and  _53
REMARK   20  A    between atoms: _53  and  _54
REMARK   21  A    between atoms: _53  and  _56
REMARK   22  A    between atoms: _56  and  _57
REMARK   23  A    between atoms: _63  and  _65
REMARK   24  A    between atoms: _65  and  _66
REMARK   25  A    between atoms: _65  and  _68
REMARK   26  A    between atoms: _68  and  _69
REMARK   27  A    between atoms: _72  and  _74
REMARK   28  A    between atoms: _74  and  _75
REMARK   29  A    between atoms: _74  and  _77
REMARK   30  A    between atoms: _77  and  _78
REMARK   31  A    between atoms: _81  and  _83
REMARK   32  A    between atoms: _83  and  _84
REMARK   33  A    between atoms: _83  and  _86
REMARK   34  A    between atoms: _86  and  _87
REMARK   35  A    between atoms: _93  and  _95
REMARK   36  A    between atoms: _95  and  _96
REMARK   37  A    between atoms: _95  and  _98
REMARK   38  A    between atoms: _98  and  _99
REMARK   39  A    between atoms: _99  and  _100
REMARK   40  A    between atoms: _105  and  _107
REMARK   41  A    between atoms: _107  and  _108
REMARK   42  A    between atoms: _110  and  _112
REMARK   43  A    between atoms: _112  and  _113
REMARK   44  A    between atoms: _112  and  _115
REMARK   45  A    between atoms: _117  and  _119
REMARK   46  A    between atoms: _119  and  _120
REMARK   47  A    between atoms: _119  and  _122
REMARK   48  A    between atoms: _122  and  _123
REMARK   49  A    between atoms: _123  and  _124
REMARK   50  A    between atoms: _129  and  _131
REMARK   51  A    between atoms: _131  and  _132
REMARK   52  A    between atoms: _131  and  _134
REMARK   53  A    between atoms: _134  and  _135
REMARK   54  A    between atoms: _141  and  _143
REMARK   55  A    between atoms: _143  and  _144
REMARK   56  A    between atoms: _143  and  _146
REMARK   57  A    between atoms: _146  and  _147
REMARK   58  A    between atoms: _147  and  _148
REMARK   59  A    between atoms: _148  and  _149
REMARK   60  A    between atoms: _158  and  _160
REMARK   61  A    between atoms: _160  and  _161
REMARK   62  A    between atoms: _160  and  _163
REMARK   63  A    between atoms: _163  and  _164
REMARK   64  A    between atoms: _166  and  _168
REMARK   65  A    between atoms: _168  and  _169
REMARK   66  A    between atoms: _168  and  _171
REMARK   67  A    between atoms: _174  and  _176
REMARK   68  A    between atoms: _176  and  _177
REMARK   69  A    between atoms: _176  and  _179
REMARK   70  A    between atoms: _179  and  _180
REMARK   71  A    between atoms: _180  and  _181
REMARK   72  A    between atoms: _184  and  _186
REMARK   73  A    between atoms: _186  and  _187
REMARK   74  A    between atoms: _190  and  _192
REMARK   75  A    between atoms: _192  and  _193
REMARK   76  A    between atoms: _192  and  _195
REMARK   77  A    between atoms: _198  and  _200
REMARK   78  A    between atoms: _200  and  _201
REMARK   79  A    between atoms: _200  and  _203
REMARK   80  A    between atoms: _203  and  _204
REMARK   81  A    between atoms: _204  and  _205
REMARK   82  A    between atoms: _210  and  _212
REMARK   83  A    between atoms: _212  and  _213
REMARK   84  A    between atoms: _212  and  _215
REMARK   85  A    between atoms: _215  and  _216
REMARK   86  A    between atoms: _216  and  _217
REMARK   87  A    between atoms: _220  and  _222
REMARK   88  A    between atoms: _222  and  _223
REMARK   89  A    between atoms: _222  and  _225
REMARK   90  A    between atoms: _225  and  _226
REMARK   91  A    between atoms: _229  and  _231
REMARK   92  A    between atoms: _231  and  _232
REMARK   93  A    between atoms: _231  and  _234
REMARK   94  A    between atoms: _234  and  _235
REMARK   95  A    between atoms: _238  and  _240
REMARK   96  A    between atoms: _240  and  _241
REMARK   97  A    between atoms: _240  and  _243
REMARK   98  A    between atoms: _246  and  _248
REMARK   99  A    between atoms: _248  and  _249
REMARK  100  A    between atoms: _248  and  _251
REMARK  101  A    between atoms: _251  and  _252
REMARK  102  A    between atoms: _257  and  _259
REMARK  103  A    between atoms: _259  and  _260
REMARK  104  A    between atoms: _259  and  _262
REMARK  105  A    between atoms: _262  and  _263
REMARK  106  A    between atoms: _263  and  _264
REMARK  107  A    between atoms: _267  and  _269
REMARK  108  A    between atoms: _269  and  _270
REMARK  109  A    between atoms: _269  and  _272
REMARK  110  A    between atoms: _272  and  _273
REMARK  111  A    between atoms: _276  and  _278
REMARK  112  A    between atoms: _278  and  _279
REMARK  113  A    between atoms: _278  and  _281
REMARK  114  A    between atoms: _281  and  _282
REMARK  115  A    between atoms: _285  and  _287
REMARK  116  A    between atoms: _287  and  _288
REMARK  117  A    between atoms: _287  and  _290
REMARK  118  A    between atoms: _290  and  _291
REMARK  119  A    between atoms: _296  and  _297
REMARK  120  A    between atoms: _299  and  _301
REMARK  121  A    between atoms: _301  and  _302
REMARK  122  A    between atoms: _301  and  _304
REMARK  123  A    between atoms: _304  and  _305
REMARK  124  A    between atoms: _308  and  _310
REMARK  125  A    between atoms: _310  and  _311
REMARK  126  A    between atoms: _310  and  _313
REMARK  127  A    between atoms: _313  and  _314
REMARK  128  A    between atoms: _314  and  _315
REMARK  129  A    between atoms: _317  and  _319
REMARK  130  A    between atoms: _319  and  _320
REMARK  131  A    between atoms: _319  and  _322
REMARK  132  A    between atoms: _322  and  _323
REMARK  133  A    between atoms: _326  and  _328
REMARK  134  A    between atoms: _328  and  _329
REMARK  135  A    between atoms: _332  and  _334
REMARK  136  A    between atoms: _334  and  _335
REMARK  137  A    between atoms: _334  and  _337
REMARK  138  A    between atoms: _337  and  _338
REMARK  139  A    between atoms: _340  and  _342
REMARK  140  A    between atoms: _342  and  _343
REMARK  141  A    between atoms: _342  and  _345
REMARK  142  A    between atoms: _345  and  _346
REMARK  143  A    between atoms: _349  and  _351
REMARK  144  A    between atoms: _351  and  _352
REMARK  145  A    between atoms: _351  and  _354
REMARK  146  A    between atoms: _354  and  _355
REMARK  147  A    between atoms: _355  and  _356
REMARK  148  A    between atoms: _358  and  _360
REMARK  149  A    between atoms: _360  and  _361
REMARK  150  A    between atoms: _360  and  _363
REMARK  151  A    between atoms: _366  and  _368
REMARK  152  A    between atoms: _368  and  _369
REMARK  153  A    between atoms: _368  and  _371
REMARK  154  A    between atoms: _371  and  _372
REMARK  155  A    between atoms: _375  and  _377
REMARK  156  A    between atoms: _377  and  _378
REMARK  157  A    between atoms: _377  and  _380
REMARK  158  A    between atoms: _380  and  _381
REMARK  159  A    between atoms: _384  and  _386
REMARK  160  A    between atoms: _386  and  _387
REMARK  161  A    between atoms: _386  and  _389
REMARK  162  A    between atoms: _389  and  _390
REMARK  163  A    between atoms: _392  and  _394
REMARK  164  A    between atoms: _394  and  _395
REMARK  165  A    between atoms: _394  and  _397
REMARK  166  A    between atoms: _397  and  _398
REMARK  167  A    between atoms: _398  and  _399
REMARK  168  A    between atoms: _402  and  _404
REMARK  169  A    between atoms: _404  and  _405
REMARK  170  A    between atoms: _404  and  _407
REMARK  171  A    between atoms: _407  and  _408
REMARK  172  A    between atoms: _414  and  _416
REMARK  173  A    between atoms: _416  and  _417
REMARK  174  A    between atoms: _416  and  _419
REMARK  175  A    between atoms: _419  and  _420
REMARK  176  A    between atoms: _420  and  _421
REMARK  177  A    between atoms: _423  and  _425
REMARK  178  A    between atoms: _425  and  _426
REMARK  179  A    between atoms: _425  and  _428
REMARK  180  A    between atoms: _428  and  _429
REMARK  181  A    between atoms: _432  and  _434
REMARK  182  A    between atoms: _434  and  _435
REMARK  183  A    between atoms: _434  and  _437
REMARK  184  A    between atoms: _437  and  _438
REMARK  185  A    between atoms: _441  and  _443
REMARK  186  A    between atoms: _443  and  _444
REMARK  187  A    between atoms: _443  and  _446
REMARK  188  A    between atoms: _446  and  _447
REMARK  189  A    between atoms: _450  and  _452
REMARK  190  A    between atoms: _452  and  _453
REMARK  191  A    between atoms: _452  and  _455
REMARK  192  A    between atoms: _455  and  _456
REMARK  193  A    between atoms: _462  and  _464
REMARK  194  A    between atoms: _464  and  _465
REMARK  195  A    between atoms: _464  and  _467
REMARK  196  A    between atoms: _467  and  _468
REMARK  197  A    between atoms: _474  and  _476
REMARK  198  A    between atoms: _476  and  _477
REMARK  199  A    between atoms: _476  and  _479
REMARK  200  A    between atoms: _479  and  _480
REMARK  201  A    between atoms: _480  and  _481
REMARK  202  A    between atoms: _483  and  _485
REMARK  203  A    between atoms: _485  and  _486
REMARK  204  A    between atoms: _485  and  _488
REMARK  205  A    between atoms: _488  and  _489
REMARK  206  A    between atoms: _489  and  _490
REMARK  207  A    between atoms: _490  and  _491
REMARK  208  A    between atoms: _491  and  _492
REMARK  209  A    between atoms: _496  and  _498
REMARK  210  A    between atoms: _498  and  _499
REMARK  211  A    between atoms: _498  and  _501
REMARK  212  A    between atoms: _501  and  _502
REMARK  213  A    between atoms: _508  and  _510
REMARK  214  A    between atoms: _510  and  _511
REMARK  215  A    between atoms: _510  and  _513
REMARK  216  A    between atoms: _513  and  _514
REMARK  217  A    between atoms: _517  and  _519
REMARK  218  A    between atoms: _519  and  _520
REMARK  219  A    between atoms: _519  and  _522
REMARK  220  A    between atoms: _522  and  _523
REMARK  221  A    between atoms: _526  and  _528
REMARK  222  A    between atoms: _528  and  _529
REMARK  223  A    between atoms: _528  and  _531
REMARK  224  A    between atoms: _534  and  _536
REMARK  225  A    between atoms: _536  and  _537
REMARK  226  A    between atoms: _536  and  _539
REMARK  227  A    between atoms: _539  and  _540
REMARK  228  A    between atoms: _545  and  _547
REMARK  229  A    between atoms: _547  and  _548
REMARK  230  A    between atoms: _547  and  _550
REMARK  231  A    between atoms: _553  and  _555
REMARK  232  A    between atoms: _555  and  _556
REMARK  233  A    between atoms: _555  and  _558
REMARK  234  A    between atoms: _558  and  _559
REMARK  235  A    between atoms: _562  and  _564
REMARK  236  A    between atoms: _564  and  _565
REMARK  237  A    between atoms: _564  and  _567
REMARK  238  A    between atoms: _567  and  _568
REMARK  239  A    between atoms: _571  and  _573
REMARK  240  A    between atoms: _573  and  _574
REMARK  241  A    between atoms: _573  and  _576
REMARK  242  A    between atoms: _576  and  _577
REMARK  243  A    between atoms: _580  and  _582
REMARK  244  A    between atoms: _582  and  _583
REMARK  245  A    between atoms: _582  and  _585
REMARK  246  A    between atoms: _585  and  _586
REMARK  247  A    between atoms: _586  and  _587
REMARK  248  A    between atoms: _589  and  _591
REMARK  249  A    between atoms: _591  and  _592
REMARK  250  A    between atoms: _591  and  _594
REMARK  251  A    between atoms: _594  and  _595
REMARK  252  A    between atoms: _597  and  _599
REMARK  253  A    between atoms: _599  and  _600
REMARK  254  A    between atoms: _599  and  _602
REMARK  255  A    between atoms: _602  and  _603
REMARK  256  A    between atoms: _606  and  _608
REMARK  257  A    between atoms: _608  and  _609
REMARK  258  A    between atoms: _608  and  _611
REMARK  259  A    between atoms: _611  and  _612
REMARK  260  A    between atoms: _617  and  _619
REMARK  261  A    between atoms: _619  and  _620
REMARK  262  A    between atoms: _619  and  _622
REMARK  263  A    between atoms: _622  and  _623
REMARK  264  A    between atoms: _626  and  _628
REMARK  265  A    between atoms: _628  and  _629
REMARK  266  A    between atoms: _628  and  _631
REMARK  267  A    between atoms: _631  and  _632
REMARK  268  A    between atoms: _632  and  _633
REMARK  269  A    between atoms: _638  and  _640
REMARK  270  A    between atoms: _640  and  _641
REMARK  271  A    between atoms: _640  and  _643
REMARK  272  A    between atoms: _643  and  _644
REMARK  273  A    between atoms: _647  and  _649
REMARK  274  A    between atoms: _649  and  _650
REMARK  275  A    between atoms: _649  and  _652
REMARK  276  A    between atoms: _652  and  _653
REMARK  277  A    between atoms: _658  and  _659
REMARK                            x       y       z     vdW  Elec       q    Type
REMARK                         _______ _______ _______ _____ _____    ______ ____
ROOT
ATOM      1  O   HOH     1      16.315  12.790  26.018  0.00  0.00    +0.000 OA
ENDROOT
TORSDOF 0
REMARK  Name = ../refined-set-2016/2i4z/2i4z_pocket.pdb
REMARK  277 active torsions:
REMARK  status: ('A' for Active; 'I' for Inactive)
REMARK    1  A    between atoms: _1  and  _3
REMARK    2  A    between atoms: _3  and  _4
REMARK    3  A    between atoms: _3  and  _6
REMARK    4  A    between atoms: _6  and  _7
REMARK    5  A    between atoms: _12  and  _13
REMARK    6  A    between atoms: _15  and  _17
REMARK    7  A    between atoms: _17  and  _18
REMARK    8  A    between atoms: _17  and  _20
REMARK    9  A    between atoms: _20  and  _21
REMARK   10  A    between atoms: _23  and  _25
REMARK   11  A    between atoms: _25  and  _26
REMARK   12  A    between atoms: _25  and  _28
REMARK   13  A    between atoms: _28  and  _29
REMARK   14  A    between atoms: _36  and  _37
REMARK   15  A    between atoms: _42  and  _44
REMARK   16  A    between atoms: _44  and  _45
REMARK   17  A    between atoms: _44  and  _47
REMARK   18  A    between atoms: _47  and  _48
REMARK   19  A    between atoms: _51  and  _53
REMARK   20  A    between atoms: _53  and  _54
REMARK   21  A    between atoms: _53  and  _56
REMARK   22  A    between atoms: _56  and  _57
REMARK   23  A    between atoms: _63  and  _65
REMARK   24  A    between atoms: _65  and  _66
REMARK   25  A    between atoms: _65  and  _68
REMARK   26  A    between atoms: _68  and  _69
REMARK   27  A    between atoms: _72  and  _74
REMARK   28  A    between atoms: _74  and  _75
REMARK   29  A    between atoms: _74  and  _77
REMARK   30  A    between atoms: _77  and  _78
REMARK   31  A    between atoms: _81  and  _83
REMARK   32  A    between atoms: _83  and  _84
REMARK   33  A    between atoms: _83  and  _86
REMARK   34  A    between atoms: _86  and  _87
REMARK   35  A    between atoms: _93  and  _95
REMARK   36  A    between atoms: _95  and  _96
REMARK   37  A    between atoms: _95  and  _98
REMARK   38  A    between atoms: _98  and  _99
REMARK   39  A    between atoms: _99  and  _100
REMARK   40  A    between atoms: _105  and  _107
REMARK   41  A    between atoms: _107  and  _108
REMARK   42  A    between atoms: _110  and  _112
REMARK   43  A    between atoms: _112  and  _113
REMARK   44  A    between atoms: _112  and  _115
REMARK   45  A    between atoms: _117  and  _119
REMARK   46  A    between atoms: _119  and  _120
REMARK   47  A    between atoms: _119  and  _122
REMARK   48  A    between atoms: _122  and  _123
REMARK   49  A    between atoms: _123  and  _124
REMARK   50  A    between atoms: _129  and  _131
REMARK   51  A    between atoms: _131  and  _132
REMARK   52  A    between atoms: _131  and  _134
REMARK   53  A    between atoms: _134  and  _135
REMARK   54  A    between atoms: _141  and  _143
REMARK   55  A    between atoms: _143  and  _144
REMARK   56  A    between atoms: _143  and  _146
REMARK   57  A    between atoms: _146  and  _147
REMARK   58  A    between atoms: _147  and  _148
REMARK   59  A    between atoms: _148  and  _149
REMARK   60  A    between atoms: _158  and  _160
REMARK   61  A    between atoms: _160  and  _161
REMARK   62  A    between atoms: _160  and  _163
REMARK   63  A    between atoms: _163  and  _164
REMARK   64  A    between atoms: _166  and  _168
REMARK   65  A    between atoms: _168  and  _169
REMARK   66  A    between atoms: _168  and  _171
REMARK   67  A    between atoms: _174  and  _176
REMARK   68  A    between atoms: _176  and  _177
REMARK   69  A    between atoms: _176  and  _179
REMARK   70  A    between atoms: _179  and  _180
REMARK   71  A    between atoms: _180  and  _181
REMARK   72  A    between atoms: _184  and  _186
REMARK   73  A    between atoms: _186  and  _187
REMARK   74  A    between atoms: _190  and  _192
REMARK   75  A    between atoms: _192  and  _193
REMARK   76  A    between atoms: _192  and  _195
REMARK   77  A    between atoms: _198  and  _200
REMARK   78  A    between atoms: _200  and  _201
REMARK   79  A    between atoms: _200  and  _203
REMARK   80  A    between atoms: _203  and  _204
REMARK   81  A    between atoms: _204  and  _205
REMARK   82  A    between atoms: _210  and  _212
REMARK   83  A    between atoms: _212  and  _213
REMARK   84  A    between atoms: _212  and  _215
REMARK   85  A    between atoms: _215  and  _216
REMARK   86  A    between atoms: _216  and  _217
REMARK   87  A    between atoms: _220  and  _222
REMARK   88  A    between atoms: _222  and  _223
REMARK   89  A    between atoms: _222  and  _225
REMARK   90  A    between atoms: _225  and  _226
REMARK   91  A    between atoms: _229  and  _231
REMARK   92  A    between atoms: _231  and  _232
REMARK   93  A    between atoms: _231  and  _234
REMARK   94  A    between atoms: _234  and  _235
REMARK   95  A    between atoms: _238  and  _240
REMARK   96  A    between atoms: _240  and  _241
REMARK   97  A    between atoms: _240  and  _243
REMARK   98  A    between atoms: _246  and  _248
REMARK   99  A    between atoms: _248  and  _249
REMARK  100  A    between atoms: _248  and  _251
REMARK  101  A    between atoms: _251  and  _252
REMARK  102  A    between atoms: _257  and  _259
REMARK  103  A    between atoms: _259  and  _260
REMARK  104  A    between atoms: _259  and  _262
REMARK  105  A    between atoms: _262  and  _263
REMARK  106  A    between atoms: _263  and  _264
REMARK  107  A    between atoms: _267  and  _269
REMARK  108  A    between atoms: _269  and  _270
REMARK  109  A    between atoms: _269  and  _272
REMARK  110  A    between atoms: _272  and  _273
REMARK  111  A    between atoms: _276  and  _278
REMARK  112  A    between atoms: _278  and  _279
REMARK  113  A    between atoms: _278  and  _281
REMARK  114  A    between atoms: _281  and  _282
REMARK  115  A    between atoms: _285  and  _287
REMARK  116  A    between atoms: _287  and  _288
REMARK  117  A    between atoms: _287  and  _290
REMARK  118  A    between atoms: _290  and  _291
REMARK  119  A    between atoms: _296  and  _297
REMARK  120  A    between atoms: _299  and  _301
REMARK  121  A    between atoms: _301  and  _302
REMARK  122  A    between atoms: _301  and  _304
REMARK  123  A    between atoms: _304  and  _305
REMARK  124  A    between atoms: _308  and  _310
REMARK  125  A    between atoms: _310  and  _311
REMARK  126  A    between atoms: _310  and  _313
REMARK  127  A    between atoms: _313  and  _314
REMARK  128  A    between atoms: _314  and  _315
REMARK  129  A    between atoms: _317  and  _319
REMARK  130  A    between atoms: _319  and  _320
REMARK  131  A    between atoms: _319  and  _322
REMARK  132  A    between atoms: _322  and  _323
REMARK  133  A    between atoms: _326  and  _328
REMARK  134  A    between atoms: _328  and  _329
REMARK  135  A    between atoms: _332  and  _334
REMARK  136  A    between atoms: _334  and  _335
REMARK  137  A    between atoms: _334  and  _337
REMARK  138  A    between atoms: _337  and  _338
REMARK  139  A    between atoms: _340  and  _342
REMARK  140  A    between atoms: _342  and  _343
REMARK  141  A    between atoms: _342  and  _345
REMARK  142  A    between atoms: _345  and  _346
REMARK  143  A    between atoms: _349  and  _351
REMARK  144  A    between atoms: _351  and  _352
REMARK  145  A    between atoms: _351  and  _354
REMARK  146  A    between atoms: _354  and  _355
REMARK  147  A    between atoms: _355  and  _356
REMARK  148  A    between atoms: _358  and  _360
REMARK  149  A    between atoms: _360  and  _361
REMARK  150  A    between atoms: _360  and  _363
REMARK  151  A    between atoms: _366  and  _368
REMARK  152  A    between atoms: _368  and  _369
REMARK  153  A    between atoms: _368  and  _371
REMARK  154  A    between atoms: _371  and  _372
REMARK  155  A    between atoms: _375  and  _377
REMARK  156  A    between atoms: _377  and  _378
REMARK  157  A    between atoms: _377  and  _380
REMARK  158  A    between atoms: _380  and  _381
REMARK  159  A    between atoms: _384  and  _386
REMARK  160  A    between atoms: _386  and  _387
REMARK  161  A    between atoms: _386  and  _389
REMARK  162  A    between atoms: _389  and  _390
REMARK  163  A    between atoms: _392  and  _394
REMARK  164  A    between atoms: _394  and  _395
REMARK  165  A    between atoms: _394  and  _397
REMARK  166  A    between atoms: _397  and  _398
REMARK  167  A    between atoms: _398  and  _399
REMARK  168  A    between atoms: _402  and  _404
REMARK  169  A    between atoms: _404  and  _405
REMARK  170  A    between atoms: _404  and  _407
REMARK  171  A    between atoms: _407  and  _408
REMARK  172  A    between atoms: _414  and  _416
REMARK  173  A    between atoms: _416  and  _417
REMARK  174  A    between atoms: _416  and  _419
REMARK  175  A    between atoms: _419  and  _420
REMARK  176  A    between atoms: _420  and  _421
REMARK  177  A    between atoms: _423  and  _425
REMARK  178  A    between atoms: _425  and  _426
REMARK  179  A    between atoms: _425  and  _428
REMARK  180  A    between atoms: _428  and  _429
REMARK  181  A    between atoms: _432  and  _434
REMARK  182  A    between atoms: _434  and  _435
REMARK  183  A    between atoms: _434  and  _437
REMARK  184  A    between atoms: _437  and  _438
REMARK  185  A    between atoms: _441  and  _443
REMARK  186  A    between atoms: _443  and  _444
REMARK  187  A    between atoms: _443  and  _446
REMARK  188  A    between atoms: _446  and  _447
REMARK  189  A    between atoms: _450  and  _452
REMARK  190  A    between atoms: _452  and  _453
REMARK  191  A    between atoms: _452  and  _455
REMARK  192  A    between atoms: _455  and  _456
REMARK  193  A    between atoms: _462  and  _464
REMARK  194  A    between atoms: _464  and  _465
REMARK  195  A    between atoms: _464  and  _467
REMARK  196  A    between atoms: _467  and  _468
REMARK  197  A    between atoms: _474  and  _476
REMARK  198  A    between atoms: _476  and  _477
REMARK  199  A    between atoms: _476  and  _479
REMARK  200  A    between atoms: _479  and  _480
REMARK  201  A    between atoms: _480  and  _481
REMARK  202  A    between atoms: _483  and  _485
REMARK  203  A    between atoms: _485  and  _486
REMARK  204  A    between atoms: _485  and  _488
REMARK  205  A    between atoms: _488  and  _489
REMARK  206  A    between atoms: _489  and  _490
REMARK  207  A    between atoms: _490  and  _491
REMARK  208  A    between atoms: _491  and  _492
REMARK  209  A    between atoms: _496  and  _498
REMARK  210  A    between atoms: _498  and  _499
REMARK  211  A    between atoms: _498  and  _501
REMARK  212  A    between atoms: _501  and  _502
REMARK  213  A    between atoms: _508  and  _510
REMARK  214  A    between atoms: _510  and  _511
REMARK  215  A    between atoms: _510  and  _513
REMARK  216  A    between atoms: _513  and  _514
REMARK  217  A    between atoms: _517  and  _519
REMARK  218  A    between atoms: _519  and  _520
REMARK  219  A    between atoms: _519  and  _522
REMARK  220  A    between atoms: _522  and  _523
REMARK  221  A    between atoms: _526  and  _528
REMARK  222  A    between atoms: _528  and  _529
REMARK  223  A    between atoms: _528  and  _531
REMARK  224  A    between atoms: _534  and  _536
REMARK  225  A    between atoms: _536  and  _537
REMARK  226  A    between atoms: _536  and  _539
REMARK  227  A    between atoms: _539  and  _540
REMARK  228  A    between atoms: _545  and  _547
REMARK  229  A    between atoms: _547  and  _548
REMARK  230  A    between atoms: _547  and  _550
REMARK  231  A    between atoms: _553  and  _555
REMARK  232  A    between atoms: _555  and  _556
REMARK  233  A    between atoms: _555  and  _558
REMARK  234  A    between atoms: _558  and  _559
REMARK  235  A    between atoms: _562  and  _564
REMARK  236  A    between atoms: _564  and  _565
REMARK  237  A    between atoms: _564  and  _567
REMARK  238  A    between atoms: _567  and  _568
REMARK  239  A    between atoms: _571  and  _573
REMARK  240  A    between atoms: _573  and  _574
REMARK  241  A    between atoms: _573  and  _576
REMARK  242  A    between atoms: _576  and  _577
REMARK  243  A    between atoms: _580  and  _582
REMARK  244  A    between atoms: _582  and  _583
REMARK  245  A    between atoms: _582  and  _585
REMARK  246  A    between atoms: _585  and  _586
REMARK  247  A    between atoms: _586  and  _587
REMARK  248  A    between atoms: _589  and  _591
REMARK  249  A    between atoms: _591  and  _592
REMARK  250  A    between atoms: _591  and  _594
REMARK  251  A    between atoms: _594  and  _595
REMARK  252  A    between atoms: _597  and  _599
REMARK  253  A    between atoms: _599  and  _600
REMARK  254  A    between atoms: _599  and  _602
REMARK  255  A    between atoms: _602  and  _603
REMARK  256  A    between atoms: _606  and  _608
REMARK  257  A    between atoms: _608  and  _609
REMARK  258  A    between atoms: _608  and  _611
REMARK  259  A    between atoms: _611  and  _612
REMARK  260  A    between atoms: _617  and  _619
REMARK  261  A    between atoms: _619  and  _620
REMARK  262  A    between atoms: _619  and  _622
REMARK  263  A    between atoms: _622  and  _623
REMARK  264  A    between atoms: _626  and  _628
REMARK  265  A    between atoms: _628  and  _629
REMARK  266  A    between atoms: _628  and  _631
REMARK  267  A    between atoms: _631  and  _632
REMARK  268  A    between atoms: _632  and  _633
REMARK  269  A    between atoms: _638  and  _640
REMARK  270  A    between atoms: _640  and  _641
REMARK  271  A    between atoms: _640  and  _643
REMARK  272  A    between atoms: _643  and  _644
REMARK  273  A    between atoms: _647  and  _649
REMARK  274  A    between atoms: _649  and  _650
REMARK  275  A    between atoms: _649  and  _652
REMARK  276  A    between atoms: _652  and  _653
REMARK  277  A    between atoms: _658  and  _659
REMARK                            x       y       z     vdW  Elec       q    Type
REMARK                         _______ _______ _______ _____ _____    ______ ____
ROOT
ATOM      1  O   HOH     1      13.415  16.993  10.170  0.00  0.00    +0.000 OA
ENDROOT
TORSDOF 0
REMARK  Name = ../refined-set-2016/2i4z/2i4z_pocket.pdb
REMARK  277 active torsions:
REMARK  status: ('A' for Active; 'I' for Inactive)
REMARK    1  A    between atoms: _1  and  _3
REMARK    2  A    between atoms: _3  and  _4
REMARK    3  A    between atoms: _3  and  _6
REMARK    4  A    between atoms: _6  and  _7
REMARK    5  A    between atoms: _12  and  _13
REMARK    6  A    between atoms: _15  and  _17
REMARK    7  A    between atoms: _17  and  _18
REMARK    8  A    between atoms: _17  and  _20
REMARK    9  A    between atoms: _20  and  _21
REMARK   10  A    between atoms: _23  and  _25
REMARK   11  A    between atoms: _25  and  _26
REMARK   12  A    between atoms: _25  and  _28
REMARK   13  A    between atoms: _28  and  _29
REMARK   14  A    between atoms: _36  and  _37
REMARK   15  A    between atoms: _42  and  _44
REMARK   16  A    between atoms: _44  and  _45
REMARK   17  A    between atoms: _44  and  _47
REMARK   18  A    between atoms: _47  and  _48
REMARK   19  A    between atoms: _51  and  _53
REMARK   20  A    between atoms: _53  and  _54
REMARK   21  A    between atoms: _53  and  _56
REMARK   22  A    between atoms: _56  and  _57
REMARK   23  A    between atoms: _63  and  _65
REMARK   24  A    between atoms: _65  and  _66
REMARK   25  A    between atoms: _65  and  _68
REMARK   26  A    between atoms: _68  and  _69
REMARK   27  A    between atoms: _72  and  _74
REMARK   28  A    between atoms: _74  and  _75
REMARK   29  A    between atoms: _74  and  _77
REMARK   30  A    between atoms: _77  and  _78
REMARK   31  A    between atoms: _81  and  _83
REMARK   32  A    between atoms: _83  and  _84
REMARK   33  A    between atoms: _83  and  _86
REMARK   34  A    between atoms: _86  and  _87
REMARK   35  A    between atoms: _93  and  _95
REMARK   36  A    between atoms: _95  and  _96
REMARK   37  A    between atoms: _95  and  _98
REMARK   38  A    between atoms: _98  and  _99
REMARK   39  A    between atoms: _99  and  _100
REMARK   40  A    between atoms: _105  and  _107
REMARK   41  A    between atoms: _107  and  _108
REMARK   42  A    between atoms: _110  and  _112
REMARK   43  A    between atoms: _112  and  _113
REMARK   44  A    between atoms: _112  and  _115
REMARK   45  A    between atoms: _117  and  _119
REMARK   46  A    between atoms: _119  and  _120
REMARK   47  A    between atoms: _119  and  _122
REMARK   48  A    between atoms: _122  and  _123
REMARK   49  A    between atoms: _123  and  _124
REMARK   50  A    between atoms: _129  and  _131
REMARK   51  A    between atoms: _131  and  _132
REMARK   52  A    between atoms: _131  and  _134
REMARK   53  A    between atoms: _134  and  _135
REMARK   54  A    between atoms: _141  and  _143
REMARK   55  A    between atoms: _143  and  _144
REMARK   56  A    between atoms: _143  and  _146
REMARK   57  A    between atoms: _146  and  _147
REMARK   58  A    between atoms: _147  and  _148
REMARK   59  A    between atoms: _148  and  _149
REMARK   60  A    between atoms: _158  and  _160
REMARK   61  A    between atoms: _160  and  _161
REMARK   62  A    between atoms: _160  and  _163
REMARK   63  A    between atoms: _163  and  _164
REMARK   64  A    between atoms: _166  and  _168
REMARK   65  A    between atoms: _168  and  _169
REMARK   66  A    between atoms: _168  and  _171
REMARK   67  A    between atoms: _174  and  _176
REMARK   68  A    between atoms: _176  and  _177
REMARK   69  A    between atoms: _176  and  _179
REMARK   70  A    between atoms: _179  and  _180
REMARK   71  A    between atoms: _180  and  _181
REMARK   72  A    between atoms: _184  and  _186
REMARK   73  A    between atoms: _186  and  _187
REMARK   74  A    between atoms: _190  and  _192
REMARK   75  A    between atoms: _192  and  _193
REMARK   76  A    between atoms: _192  and  _195
REMARK   77  A    between atoms: _198  and  _200
REMARK   78  A    between atoms: _200  and  _201
REMARK   79  A    between atoms: _200  and  _203
REMARK   80  A    between atoms: _203  and  _204
REMARK   81  A    between atoms: _204  and  _205
REMARK   82  A    between atoms: _210  and  _212
REMARK   83  A    between atoms: _212  and  _213
REMARK   84  A    between atoms: _212  and  _215
REMARK   85  A    between atoms: _215  and  _216
REMARK   86  A    between atoms: _216  and  _217
REMARK   87  A    between atoms: _220  and  _222
REMARK   88  A    between atoms: _222  and  _223
REMARK   89  A    between atoms: _222  and  _225
REMARK   90  A    between atoms: _225  and  _226
REMARK   91  A    between atoms: _229  and  _231
REMARK   92  A    between atoms: _231  and  _232
REMARK   93  A    between atoms: _231  and  _234
REMARK   94  A    between atoms: _234  and  _235
REMARK   95  A    between atoms: _238  and  _240
REMARK   96  A    between atoms: _240  and  _241
REMARK   97  A    between atoms: _240  and  _243
REMARK   98  A    between atoms: _246  and  _248
REMARK   99  A    between atoms: _248  and  _249
REMARK  100  A    between atoms: _248  and  _251
REMARK  101  A    between atoms: _251  and  _252
REMARK  102  A    between atoms: _257  and  _259
REMARK  103  A    between atoms: _259  and  _260
REMARK  104  A    between atoms: _259  and  _262
REMARK  105  A    between atoms: _262  and  _263
REMARK  106  A    between atoms: _263  and  _264
REMARK  107  A    between atoms: _267  and  _269
REMARK  108  A    between atoms: _269  and  _270
REMARK  109  A    between atoms: _269  and  _272
REMARK  110  A    between atoms: _272  and  _273
REMARK  111  A    between atoms: _276  and  _278
REMARK  112  A    between atoms: _278  and  _279
REMARK  113  A    between atoms: _278  and  _281
REMARK  114  A    between atoms: _281  and  _282
REMARK  115  A    between atoms: _285  and  _287
REMARK  116  A    between atoms: _287  and  _288
REMARK  117  A    between atoms: _287  and  _290
REMARK  118  A    between atoms: _290  and  _291
REMARK  119  A    between atoms: _296  and  _297
REMARK  120  A    between atoms: _299  and  _301
REMARK  121  A    between atoms: _301  and  _302
REMARK  122  A    between atoms: _301  and  _304
REMARK  123  A    between atoms: _304  and  _305
REMARK  124  A    between atoms: _308  and  _310
REMARK  125  A    between atoms: _310  and  _311
REMARK  126  A    between atoms: _310  and  _313
REMARK  127  A    between atoms: _313  and  _314
REMARK  128  A    between atoms: _314  and  _315
REMARK  129  A    between atoms: _317  and  _319
REMARK  130  A    between atoms: _319  and  _320
REMARK  131  A    between atoms: _319  and  _322
REMARK  132  A    between atoms: _322  and  _323
REMARK  133  A    between atoms: _326  and  _328
REMARK  134  A    between atoms: _328  and  _329
REMARK  135  A    between atoms: _332  and  _334
REMARK  136  A    between atoms: _334  and  _335
REMARK  137  A    between atoms: _334  and  _337
REMARK  138  A    between atoms: _337  and  _338
REMARK  139  A    between atoms: _340  and  _342
REMARK  140  A    between atoms: _342  and  _343
REMARK  141  A    between atoms: _342  and  _345
REMARK  142  A    between atoms: _345  and  _346
REMARK  143  A    between atoms: _349  and  _351
REMARK  144  A    between atoms: _351  and  _352
REMARK  145  A    between atoms: _351  and  _354
REMARK  146  A    between atoms: _354  and  _355
REMARK  147  A    between atoms: _355  and  _356
REMARK  148  A    between atoms: _358  and  _360
REMARK  149  A    between atoms: _360  and  _361
REMARK  150  A    between atoms: _360  and  _363
REMARK  151  A    between atoms: _366  and  _368
REMARK  152  A    between atoms: _368  and  _369
REMARK  153  A    between atoms: _368  and  _371
REMARK  154  A    between atoms: _371  and  _372
REMARK  155  A    between atoms: _375  and  _377
REMARK  156  A    between atoms: _377  and  _378
REMARK  157  A    between atoms: _377  and  _380
REMARK  158  A    between atoms: _380  and  _381
REMARK  159  A    between atoms: _384  and  _386
REMARK  160  A    between atoms: _386  and  _387
REMARK  161  A    between atoms: _386  and  _389
REMARK  162  A    between atoms: _389  and  _390
REMARK  163  A    between atoms: _392  and  _394
REMARK  164  A    between atoms: _394  and  _395
REMARK  165  A    between atoms: _394  and  _397
REMARK  166  A    between atoms: _397  and  _398
REMARK  167  A    between atoms: _398  and  _399
REMARK  168  A    between atoms: _402  and  _404
REMARK  169  A    between atoms: _404  and  _405
REMARK  170  A    between atoms: _404  and  _407
REMARK  171  A    between atoms: _407  and  _408
REMARK  172  A    between atoms: _414  and  _416
REMARK  173  A    between atoms: _416  and  _417
REMARK  174  A    between atoms: _416  and  _419
REMARK  175  A    between atoms: _419  and  _420
REMARK  176  A    between atoms: _420  and  _421
REMARK  177  A    between atoms: _423  and  _425
REMARK  178  A    between atoms: _425  and  _426
REMARK  179  A    between atoms: _425  and  _428
REMARK  180  A    between atoms: _428  and  _429
REMARK  181  A    between atoms: _432  and  _434
REMARK  182  A    between atoms: _434  and  _435
REMARK  183  A    between atoms: _434  and  _437
REMARK  184  A    between atoms: _437  and  _438
REMARK  185  A    between atoms: _441  and  _443
REMARK  186  A    between atoms: _443  and  _444
REMARK  187  A    between atoms: _443  and  _446
REMARK  188  A    between atoms: _446  and  _447
REMARK  189  A    between atoms: _450  and  _452
REMARK  190  A    between atoms: _452  and  _453
REMARK  191  A    between atoms: _452  and  _455
REMARK  192  A    between atoms: _455  and  _456
REMARK  193  A    between atoms: _462  and  _464
REMARK  194  A    between atoms: _464  and  _465
REMARK  195  A    between atoms: _464  and  _467
REMARK  196  A    between atoms: _467  and  _468
REMARK  197  A    between atoms: _474  and  _476
REMARK  198  A    between atoms: _476  and  _477
REMARK  199  A    between atoms: _476  and  _479
REMARK  200  A    between atoms: _479  and  _480
REMARK  201  A    between atoms: _480  and  _481
REMARK  202  A    between atoms: _483  and  _485
REMARK  203  A    between atoms: _485  and  _486
REMARK  204  A    between atoms: _485  and  _488
REMARK  205  A    between atoms: _488  and  _489
REMARK  206  A    between atoms: _489  and  _490
REMARK  207  A    between atoms: _490  and  _491
REMARK  208  A    between atoms: _491  and  _492
REMARK  209  A    between atoms: _496  and  _498
REMARK  210  A    between atoms: _498  and  _499
REMARK  211  A    between atoms: _498  and  _501
REMARK  212  A    between atoms: _501  and  _502
REMARK  213  A    between atoms: _508  and  _510
REMARK  214  A    between atoms: _510  and  _511
REMARK  215  A    between atoms: _510  and  _513
REMARK  216  A    between atoms: _513  and  _514
REMARK  217  A    between atoms: _517  and  _519
REMARK  218  A    between atoms: _519  and  _520
REMARK  219  A    between atoms: _519  and  _522
REMARK  220  A    between atoms: _522  and  _523
REMARK  221  A    between atoms: _526  and  _528
REMARK  222  A    between atoms: _528  and  _529
REMARK  223  A    between atoms: _528  and  _531
REMARK  224  A    between atoms: _534  and  _536
REMARK  225  A    between atoms: _536  and  _537
REMARK  226  A    between atoms: _536  and  _539
REMARK  227  A    between atoms: _539  and  _540
REMARK  228  A    between atoms: _545  and  _547
REMARK  229  A    between atoms: _547  and  _548
REMARK  230  A    between atoms: _547  and  _550
REMARK  231  A    between atoms: _553  and  _555
REMARK  232  A    between atoms: _555  and  _556
REMARK  233  A    between atoms: _555  and  _558
REMARK  234  A    between atoms: _558  and  _559
REMARK  235  A    between atoms: _562  and  _564
REMARK  236  A    between atoms: _564  and  _565
REMARK  237  A    between atoms: _564  and  _567
REMARK  238  A    between atoms: _567  and  _568
REMARK  239  A    between atoms: _571  and  _573
REMARK  240  A    between atoms: _573  and  _574
REMARK  241  A    between atoms: _573  and  _576
REMARK  242  A    between atoms: _576  and  _577
REMARK  243  A    between atoms: _580  and  _582
REMARK  244  A    between atoms: _582  and  _583
REMARK  245  A    between atoms: _582  and  _585
REMARK  246  A    between atoms: _585  and  _586
REMARK  247  A    between atoms: _586  and  _587
REMARK  248  A    between atoms: _589  and  _591
REMARK  249  A    between atoms: _591  and  _592
REMARK  250  A    between atoms: _591  and  _594
REMARK  251  A    between atoms: _594  and  _595
REMARK  252  A    between atoms: _597  and  _599
REMARK  253  A    between atoms: _599  and  _600
REMARK  254  A    between atoms: _599  and  _602
REMARK  255  A    between atoms: _602  and  _603
REMARK  256  A    between atoms: _606  and  _608
REMARK  257  A    between atoms: _608  and  _609
REMARK  258  A    between atoms: _608  and  _611
REMARK  259  A    between atoms: _611  and  _612
REMARK  260  A    between atoms: _617  and  _619
REMARK  261  A    between atoms: _619  and  _620
REMARK  262  A    between atoms: _619  and  _622
REMARK  263  A    between atoms: _622  and  _623
REMARK  264  A    between atoms: _626  and  _628
REMARK  265  A    between atoms: _628  and  _629
REMARK  266  A    between atoms: _628  and  _631
REMARK  267  A    between atoms: _631  and  _632
REMARK  268  A    between atoms: _632  and  _633
REMARK  269  A    between atoms: _638  and  _640
REMARK  270  A    between atoms: _640  and  _641
REMARK  271  A    between atoms: _640  and  _643
REMARK  272  A    between atoms: _643  and  _644
REMARK  273  A    between atoms: _647  and  _649
REMARK  274  A    between atoms: _649  and  _650
REMARK  275  A    between atoms: _649  and  _652
REMARK  276  A    between atoms: _652  and  _653
REMARK  277  A    between atoms: _658  and  _659
REMARK                            x       y       z     vdW  Elec       q    Type
REMARK                         _______ _______ _______ _____ _____    ______ ____
ROOT
ATOM      1  O   HOH     1       8.010  10.385  11.924  0.00  0.00    +0.000 OA
ENDROOT
TORSDOF 0
REMARK  Name = ../refined-set-2016/2i4z/2i4z_pocket.pdb
REMARK  277 active torsions:
REMARK  status: ('A' for Active; 'I' for Inactive)
REMARK    1  A    between atoms: _1  and  _3
REMARK    2  A    between atoms: _3  and  _4
REMARK    3  A    between atoms: _3  and  _6
REMARK    4  A    between atoms: _6  and  _7
REMARK    5  A    between atoms: _12  and  _13
REMARK    6  A    between atoms: _15  and  _17
REMARK    7  A    between atoms: _17  and  _18
REMARK    8  A    between atoms: _17  and  _20
REMARK    9  A    between atoms: _20  and  _21
REMARK   10  A    between atoms: _23  and  _25
REMARK   11  A    between atoms: _25  and  _26
REMARK   12  A    between atoms: _25  and  _28
REMARK   13  A    between atoms: _28  and  _29
REMARK   14  A    between atoms: _36  and  _37
REMARK   15  A    between atoms: _42  and  _44
REMARK   16  A    between atoms: _44  and  _45
REMARK   17  A    between atoms: _44  and  _47
REMARK   18  A    between atoms: _47  and  _48
REMARK   19  A    between atoms: _51  and  _53
REMARK   20  A    between atoms: _53  and  _54
REMARK   21  A    between atoms: _53  and  _56
REMARK   22  A    between atoms: _56  and  _57
REMARK   23  A    between atoms: _63  and  _65
REMARK   24  A    between atoms: _65  and  _66
REMARK   25  A    between atoms: _65  and  _68
REMARK   26  A    between atoms: _68  and  _69
REMARK   27  A    between atoms: _72  and  _74
REMARK   28  A    between atoms: _74  and  _75
REMARK   29  A    between atoms: _74  and  _77
REMARK   30  A    between atoms: _77  and  _78
REMARK   31  A    between atoms: _81  and  _83
REMARK   32  A    between atoms: _83  and  _84
REMARK   33  A    between atoms: _83  and  _86
REMARK   34  A    between atoms: _86  and  _87
REMARK   35  A    between atoms: _93  and  _95
REMARK   36  A    between atoms: _95  and  _96
REMARK   37  A    between atoms: _95  and  _98
REMARK   38  A    between atoms: _98  and  _99
REMARK   39  A    between atoms: _99  and  _100
REMARK   40  A    between atoms: _105  and  _107
REMARK   41  A    between atoms: _107  and  _108
REMARK   42  A    between atoms: _110  and  _112
REMARK   43  A    between atoms: _112  and  _113
REMARK   44  A    between atoms: _112  and  _115
REMARK   45  A    between atoms: _117  and  _119
REMARK   46  A    between atoms: _119  and  _120
REMARK   47  A    between atoms: _119  and  _122
REMARK   48  A    between atoms: _122  and  _123
REMARK   49  A    between atoms: _123  and  _124
REMARK   50  A    between atoms: _129  and  _131
REMARK   51  A    between atoms: _131  and  _132
REMARK   52  A    between atoms: _131  and  _134
REMARK   53  A    between atoms: _134  and  _135
REMARK   54  A    between atoms: _141  and  _143
REMARK   55  A    between atoms: _143  and  _144
REMARK   56  A    between atoms: _143  and  _146
REMARK   57  A    between atoms: _146  and  _147
REMARK   58  A    between atoms: _147  and  _148
REMARK   59  A    between atoms: _148  and  _149
REMARK   60  A    between atoms: _158  and  _160
REMARK   61  A    between atoms: _160  and  _161
REMARK   62  A    between atoms: _160  and  _163
REMARK   63  A    between atoms: _163  and  _164
REMARK   64  A    between atoms: _166  and  _168
REMARK   65  A    between atoms: _168  and  _169
REMARK   66  A    between atoms: _168  and  _171
REMARK   67  A    between atoms: _174  and  _176
REMARK   68  A    between atoms: _176  and  _177
REMARK   69  A    between atoms: _176  and  _179
REMARK   70  A    between atoms: _179  and  _180
REMARK   71  A    between atoms: _180  and  _181
REMARK   72  A    between atoms: _184  and  _186
REMARK   73  A    between atoms: _186  and  _187
REMARK   74  A    between atoms: _190  and  _192
REMARK   75  A    between atoms: _192  and  _193
REMARK   76  A    between atoms: _192  and  _195
REMARK   77  A    between atoms: _198  and  _200
REMARK   78  A    between atoms: _200  and  _201
REMARK   79  A    between atoms: _200  and  _203
REMARK   80  A    between atoms: _203  and  _204
REMARK   81  A    between atoms: _204  and  _205
REMARK   82  A    between atoms: _210  and  _212
REMARK   83  A    between atoms: _212  and  _213
REMARK   84  A    between atoms: _212  and  _215
REMARK   85  A    between atoms: _215  and  _216
REMARK   86  A    between atoms: _216  and  _217
REMARK   87  A    between atoms: _220  and  _222
REMARK   88  A    between atoms: _222  and  _223
REMARK   89  A    between atoms: _222  and  _225
REMARK   90  A    between atoms: _225  and  _226
REMARK   91  A    between atoms: _229  and  _231
REMARK   92  A    between atoms: _231  and  _232
REMARK   93  A    between atoms: _231  and  _234
REMARK   94  A    between atoms: _234  and  _235
REMARK   95  A    between atoms: _238  and  _240
REMARK   96  A    between atoms: _240  and  _241
REMARK   97  A    between atoms: _240  and  _243
REMARK   98  A    between atoms: _246  and  _248
REMARK   99  A    between atoms: _248  and  _249
REMARK  100  A    between atoms: _248  and  _251
REMARK  101  A    between atoms: _251  and  _252
REMARK  102  A    between atoms: _257  and  _259
REMARK  103  A    between atoms: _259  and  _260
REMARK  104  A    between atoms: _259  and  _262
REMARK  105  A    between atoms: _262  and  _263
REMARK  106  A    between atoms: _263  and  _264
REMARK  107  A    between atoms: _267  and  _269
REMARK  108  A    between atoms: _269  and  _270
REMARK  109  A    between atoms: _269  and  _272
REMARK  110  A    between atoms: _272  and  _273
REMARK  111  A    between atoms: _276  and  _278
REMARK  112  A    between atoms: _278  and  _279
REMARK  113  A    between atoms: _278  and  _281
REMARK  114  A    between atoms: _281  and  _282
REMARK  115  A    between atoms: _285  and  _287
REMARK  116  A    between atoms: _287  and  _288
REMARK  117  A    between atoms: _287  and  _290
REMARK  118  A    between atoms: _290  and  _291
REMARK  119  A    between atoms: _296  and  _297
REMARK  120  A    between atoms: _299  and  _301
REMARK  121  A    between atoms: _301  and  _302
REMARK  122  A    between atoms: _301  and  _304
REMARK  123  A    between atoms: _304  and  _305
REMARK  124  A    between atoms: _308  and  _310
REMARK  125  A    between atoms: _310  and  _311
REMARK  126  A    between atoms: _310  and  _313
REMARK  127  A    between atoms: _313  and  _314
REMARK  128  A    between atoms: _314  and  _315
REMARK  129  A    between atoms: _317  and  _319
REMARK  130  A    between atoms: _319  and  _320
REMARK  131  A    between atoms: _319  and  _322
REMARK  132  A    between atoms: _322  and  _323
REMARK  133  A    between atoms: _326  and  _328
REMARK  134  A    between atoms: _328  and  _329
REMARK  135  A    between atoms: _332  and  _334
REMARK  136  A    between atoms: _334  and  _335
REMARK  137  A    between atoms: _334  and  _337
REMARK  138  A    between atoms: _337  and  _338
REMARK  139  A    between atoms: _340  and  _342
REMARK  140  A    between atoms: _342  and  _343
REMARK  141  A    between atoms: _342  and  _345
REMARK  142  A    between atoms: _345  and  _346
REMARK  143  A    between atoms: _349  and  _351
REMARK  144  A    between atoms: _351  and  _352
REMARK  145  A    between atoms: _351  and  _354
REMARK  146  A    between atoms: _354  and  _355
REMARK  147  A    between atoms: _355  and  _356
REMARK  148  A    between atoms: _358  and  _360
REMARK  149  A    between atoms: _360  and  _361
REMARK  150  A    between atoms: _360  and  _363
REMARK  151  A    between atoms: _366  and  _368
REMARK  152  A    between atoms: _368  and  _369
REMARK  153  A    between atoms: _368  and  _371
REMARK  154  A    between atoms: _371  and  _372
REMARK  155  A    between atoms: _375  and  _377
REMARK  156  A    between atoms: _377  and  _378
REMARK  157  A    between atoms: _377  and  _380
REMARK  158  A    between atoms: _380  and  _381
REMARK  159  A    between atoms: _384  and  _386
REMARK  160  A    between atoms: _386  and  _387
REMARK  161  A    between atoms: _386  and  _389
REMARK  162  A    between atoms: _389  and  _390
REMARK  163  A    between atoms: _392  and  _394
REMARK  164  A    between atoms: _394  and  _395
REMARK  165  A    between atoms: _394  and  _397
REMARK  166  A    between atoms: _397  and  _398
REMARK  167  A    between atoms: _398  and  _399
REMARK  168  A    between atoms: _402  and  _404
REMARK  169  A    between atoms: _404  and  _405
REMARK  170  A    between atoms: _404  and  _407
REMARK  171  A    between atoms: _407  and  _408
REMARK  172  A    between atoms: _414  and  _416
REMARK  173  A    between atoms: _416  and  _417
REMARK  174  A    between atoms: _416  and  _419
REMARK  175  A    between atoms: _419  and  _420
REMARK  176  A    between atoms: _420  and  _421
REMARK  177  A    between atoms: _423  and  _425
REMARK  178  A    between atoms: _425  and  _426
REMARK  179  A    between atoms: _425  and  _428
REMARK  180  A    between atoms: _428  and  _429
REMARK  181  A    between atoms: _432  and  _434
REMARK  182  A    between atoms: _434  and  _435
REMARK  183  A    between atoms: _434  and  _437
REMARK  184  A    between atoms: _437  and  _438
REMARK  185  A    between atoms: _441  and  _443
REMARK  186  A    between atoms: _443  and  _444
REMARK  187  A    between atoms: _443  and  _446
REMARK  188  A    between atoms: _446  and  _447
REMARK  189  A    between atoms: _450  and  _452
REMARK  190  A    between atoms: _452  and  _453
REMARK  191  A    between atoms: _452  and  _455
REMARK  192  A    between atoms: _455  and  _456
REMARK  193  A    between atoms: _462  and  _464
REMARK  194  A    between atoms: _464  and  _465
REMARK  195  A    between atoms: _464  and  _467
REMARK  196  A    between atoms: _467  and  _468
REMARK  197  A    between atoms: _474  and  _476
REMARK  198  A    between atoms: _476  and  _477
REMARK  199  A    between atoms: _476  and  _479
REMARK  200  A    between atoms: _479  and  _480
REMARK  201  A    between atoms: _480  and  _481
REMARK  202  A    between atoms: _483  and  _485
REMARK  203  A    between atoms: _485  and  _486
REMARK  204  A    between atoms: _485  and  _488
REMARK  205  A    between atoms: _488  and  _489
REMARK  206  A    between atoms: _489  and  _490
REMARK  207  A    between atoms: _490  and  _491
REMARK  208  A    between atoms: _491  and  _492
REMARK  209  A    between atoms: _496  and  _498
REMARK  210  A    between atoms: _498  and  _499
REMARK  211  A    between atoms: _498  and  _501
REMARK  212  A    between atoms: _501  and  _502
REMARK  213  A    between atoms: _508  and  _510
REMARK  214  A    between atoms: _510  and  _511
REMARK  215  A    between atoms: _510  and  _513
REMARK  216  A    between atoms: _513  and  _514
REMARK  217  A    between atoms: _517  and  _519
REMARK  218  A    between atoms: _519  and  _520
REMARK  219  A    between atoms: _519  and  _522
REMARK  220  A    between atoms: _522  and  _523
REMARK  221  A    between atoms: _526  and  _528
REMARK  222  A    between atoms: _528  and  _529
REMARK  223  A    between atoms: _528  and  _531
REMARK  224  A    between atoms: _534  and  _536
REMARK  225  A    between atoms: _536  and  _537
REMARK  226  A    between atoms: _536  and  _539
REMARK  227  A    between atoms: _539  and  _540
REMARK  228  A    between atoms: _545  and  _547
REMARK  229  A    between atoms: _547  and  _548
REMARK  230  A    between atoms: _547  and  _550
REMARK  231  A    between atoms: _553  and  _555
REMARK  232  A    between atoms: _555  and  _556
REMARK  233  A    between atoms: _555  and  _558
REMARK  234  A    between atoms: _558  and  _559
REMARK  235  A    between atoms: _562  and  _564
REMARK  236  A    between atoms: _564  and  _565
REMARK  237  A    between atoms: _564  and  _567
REMARK  238  A    between atoms: _567  and  _568
REMARK  239  A    between atoms: _571  and  _573
REMARK  240  A    between atoms: _573  and  _574
REMARK  241  A    between atoms: _573  and  _576
REMARK  242  A    between atoms: _576  and  _577
REMARK  243  A    between atoms: _580  and  _582
REMARK  244  A    between atoms: _582  and  _583
REMARK  245  A    between atoms: _582  and  _585
REMARK  246  A    between atoms: _585  and  _586
REMARK  247  A    between atoms: _586  and  _587
REMARK  248  A    between atoms: _589  and  _591
REMARK  249  A    between atoms: _591  and  _592
REMARK  250  A    between atoms: _591  and  _594
REMARK  251  A    between atoms: _594  and  _595
REMARK  252  A    between atoms: _597  and  _599
REMARK  253  A    between atoms: _599  and  _600
REMARK  254  A    between atoms: _599  and  _602
REMARK  255  A    between atoms: _602  and  _603
REMARK  256  A    between atoms: _606  and  _608
REMARK  257  A    between atoms: _608  and  _609
REMARK  258  A    between atoms: _608  and  _611
REMARK  259  A    between atoms: _611  and  _612
REMARK  260  A    between atoms: _617  and  _619
REMARK  261  A    between atoms: _619  and  _620
REMARK  262  A    between atoms: _619  and  _622
REMARK  263  A    between atoms: _622  and  _623
REMARK  264  A    between atoms: _626  and  _628
REMARK  265  A    between atoms: _628  and  _629
REMARK  266  A    between atoms: _628  and  _631
REMARK  267  A    between atoms: _631  and  _632
REMARK  268  A    between atoms: _632  and  _633
REMARK  269  A    between atoms: _638  and  _640
REMARK  270  A    between atoms: _640  and  _641
REMARK  271  A    between atoms: _640  and  _643
REMARK  272  A    between atoms: _643  and  _644
REMARK  273  A    between atoms: _647  and  _649
REMARK  274  A    between atoms: _649  and  _650
REMARK  275  A    between atoms: _649  and  _652
REMARK  276  A    between atoms: _652  and  _653
REMARK  277  A    between atoms: _658  and  _659
REMARK                            x       y       z     vdW  Elec       q    Type
REMARK                         _______ _______ _______ _____ _____    ______ ____
ROOT
ATOM      1  O   HOH     1      17.999   8.025  14.015  0.00  0.00    +0.000 OA
ENDROOT
TORSDOF 0
REMARK  Name = ../refined-set-2016/2i4z/2i4z_pocket.pdb
REMARK  277 active torsions:
REMARK  status: ('A' for Active; 'I' for Inactive)
REMARK    1  A    between atoms: _1  and  _3
REMARK    2  A    between atoms: _3  and  _4
REMARK    3  A    between atoms: _3  and  _6
REMARK    4  A    between atoms: _6  and  _7
REMARK    5  A    between atoms: _12  and  _13
REMARK    6  A    between atoms: _15  and  _17
REMARK    7  A    between atoms: _17  and  _18
REMARK    8  A    between atoms: _17  and  _20
REMARK    9  A    between atoms: _20  and  _21
REMARK   10  A    between atoms: _23  and  _25
REMARK   11  A    between atoms: _25  and  _26
REMARK   12  A    between atoms: _25  and  _28
REMARK   13  A    between atoms: _28  and  _29
REMARK   14  A    between atoms: _36  and  _37
REMARK   15  A    between atoms: _42  and  _44
REMARK   16  A    between atoms: _44  and  _45
REMARK   17  A    between atoms: _44  and  _47
REMARK   18  A    between atoms: _47  and  _48
REMARK   19  A    between atoms: _51  and  _53
REMARK   20  A    between atoms: _53  and  _54
REMARK   21  A    between atoms: _53  and  _56
REMARK   22  A    between atoms: _56  and  _57
REMARK   23  A    between atoms: _63  and  _65
REMARK   24  A    between atoms: _65  and  _66
REMARK   25  A    between atoms: _65  and  _68
REMARK   26  A    between atoms: _68  and  _69
REMARK   27  A    between atoms: _72  and  _74
REMARK   28  A    between atoms: _74  and  _75
REMARK   29  A    between atoms: _74  and  _77
REMARK   30  A    between atoms: _77  and  _78
REMARK   31  A    between atoms: _81  and  _83
REMARK   32  A    between atoms: _83  and  _84
REMARK   33  A    between atoms: _83  and  _86
REMARK   34  A    between atoms: _86  and  _87
REMARK   35  A    between atoms: _93  and  _95
REMARK   36  A    between atoms: _95  and  _96
REMARK   37  A    between atoms: _95  and  _98
REMARK   38  A    between atoms: _98  and  _99
REMARK   39  A    between atoms: _99  and  _100
REMARK   40  A    between atoms: _105  and  _107
REMARK   41  A    between atoms: _107  and  _108
REMARK   42  A    between atoms: _110  and  _112
REMARK   43  A    between atoms: _112  and  _113
REMARK   44  A    between atoms: _112  and  _115
REMARK   45  A    between atoms: _117  and  _119
REMARK   46  A    between atoms: _119  and  _120
REMARK   47  A    between atoms: _119  and  _122
REMARK   48  A    between atoms: _122  and  _123
REMARK   49  A    between atoms: _123  and  _124
REMARK   50  A    between atoms: _129  and  _131
REMARK   51  A    between atoms: _131  and  _132
REMARK   52  A    between atoms: _131  and  _134
REMARK   53  A    between atoms: _134  and  _135
REMARK   54  A    between atoms: _141  and  _143
REMARK   55  A    between atoms: _143  and  _144
REMARK   56  A    between atoms: _143  and  _146
REMARK   57  A    between atoms: _146  and  _147
REMARK   58  A    between atoms: _147  and  _148
REMARK   59  A    between atoms: _148  and  _149
REMARK   60  A    between atoms: _158  and  _160
REMARK   61  A    between atoms: _160  and  _161
REMARK   62  A    between atoms: _160  and  _163
REMARK   63  A    between atoms: _163  and  _164
REMARK   64  A    between atoms: _166  and  _168
REMARK   65  A    between atoms: _168  and  _169
REMARK   66  A    between atoms: _168  and  _171
REMARK   67  A    between atoms: _174  and  _176
REMARK   68  A    between atoms: _176  and  _177
REMARK   69  A    between atoms: _176  and  _179
REMARK   70  A    between atoms: _179  and  _180
REMARK   71  A    between atoms: _180  and  _181
REMARK   72  A    between atoms: _184  and  _186
REMARK   73  A    between atoms: _186  and  _187
REMARK   74  A    between atoms: _190  and  _192
REMARK   75  A    between atoms: _192  and  _193
REMARK   76  A    between atoms: _192  and  _195
REMARK   77  A    between atoms: _198  and  _200
REMARK   78  A    between atoms: _200  and  _201
REMARK   79  A    between atoms: _200  and  _203
REMARK   80  A    between atoms: _203  and  _204
REMARK   81  A    between atoms: _204  and  _205
REMARK   82  A    between atoms: _210  and  _212
REMARK   83  A    between atoms: _212  and  _213
REMARK   84  A    between atoms: _212  and  _215
REMARK   85  A    between atoms: _215  and  _216
REMARK   86  A    between atoms: _216  and  _217
REMARK   87  A    between atoms: _220  and  _222
REMARK   88  A    between atoms: _222  and  _223
REMARK   89  A    between atoms: _222  and  _225
REMARK   90  A    between atoms: _225  and  _226
REMARK   91  A    between atoms: _229  and  _231
REMARK   92  A    between atoms: _231  and  _232
REMARK   93  A    between atoms: _231  and  _234
REMARK   94  A    between atoms: _234  and  _235
REMARK   95  A    between atoms: _238  and  _240
REMARK   96  A    between atoms: _240  and  _241
REMARK   97  A    between atoms: _240  and  _243
REMARK   98  A    between atoms: _246  and  _248
REMARK   99  A    between atoms: _248  and  _249
REMARK  100  A    between atoms: _248  and  _251
REMARK  101  A    between atoms: _251  and  _252
REMARK  102  A    between atoms: _257  and  _259
REMARK  103  A    between atoms: _259  and  _260
REMARK  104  A    between atoms: _259  and  _262
REMARK  105  A    between atoms: _262  and  _263
REMARK  106  A    between atoms: _263  and  _264
REMARK  107  A    between atoms: _267  and  _269
REMARK  108  A    between atoms: _269  and  _270
REMARK  109  A    between atoms: _269  and  _272
REMARK  110  A    between atoms: _272  and  _273
REMARK  111  A    between atoms: _276  and  _278
REMARK  112  A    between atoms: _278  and  _279
REMARK  113  A    between atoms: _278  and  _281
REMARK  114  A    between atoms: _281  and  _282
REMARK  115  A    between atoms: _285  and  _287
REMARK  116  A    between atoms: _287  and  _288
REMARK  117  A    between atoms: _287  and  _290
REMARK  118  A    between atoms: _290  and  _291
REMARK  119  A    between atoms: _296  and  _297
REMARK  120  A    between atoms: _299  and  _301
REMARK  121  A    between atoms: _301  and  _302
REMARK  122  A    between atoms: _301  and  _304
REMARK  123  A    between atoms: _304  and  _305
REMARK  124  A    between atoms: _308  and  _310
REMARK  125  A    between atoms: _310  and  _311
REMARK  126  A    between atoms: _310  and  _313
REMARK  127  A    between atoms: _313  and  _314
REMARK  128  A    between atoms: _314  and  _315
REMARK  129  A    between atoms: _317  and  _319
REMARK  130  A    between atoms: _319  and  _320
REMARK  131  A    between atoms: _319  and  _322
REMARK  132  A    between atoms: _322  and  _323
REMARK  133  A    between atoms: _326  and  _328
REMARK  134  A    between atoms: _328  and  _329
REMARK  135  A    between atoms: _332  and  _334
REMARK  136  A    between atoms: _334  and  _335
REMARK  137  A    between atoms: _334  and  _337
REMARK  138  A    between atoms: _337  and  _338
REMARK  139  A    between atoms: _340  and  _342
REMARK  140  A    between atoms: _342  and  _343
REMARK  141  A    between atoms: _342  and  _345
REMARK  142  A    between atoms: _345  and  _346
REMARK  143  A    between atoms: _349  and  _351
REMARK  144  A    between atoms: _351  and  _352
REMARK  145  A    between atoms: _351  and  _354
REMARK  146  A    between atoms: _354  and  _355
REMARK  147  A    between atoms: _355  and  _356
REMARK  148  A    between atoms: _358  and  _360
REMARK  149  A    between atoms: _360  and  _361
REMARK  150  A    between atoms: _360  and  _363
REMARK  151  A    between atoms: _366  and  _368
REMARK  152  A    between atoms: _368  and  _369
REMARK  153  A    between atoms: _368  and  _371
REMARK  154  A    between atoms: _371  and  _372
REMARK  155  A    between atoms: _375  and  _377
REMARK  156  A    between atoms: _377  and  _378
REMARK  157  A    between atoms: _377  and  _380
REMARK  158  A    between atoms: _380  and  _381
REMARK  159  A    between atoms: _384  and  _386
REMARK  160  A    between atoms: _386  and  _387
REMARK  161  A    between atoms: _386  and  _389
REMARK  162  A    between atoms: _389  and  _390
REMARK  163  A    between atoms: _392  and  _394
REMARK  164  A    between atoms: _394  and  _395
REMARK  165  A    between atoms: _394  and  _397
REMARK  166  A    between atoms: _397  and  _398
REMARK  167  A    between atoms: _398  and  _399
REMARK  168  A    between atoms: _402  and  _404
REMARK  169  A    between atoms: _404  and  _405
REMARK  170  A    between atoms: _404  and  _407
REMARK  171  A    between atoms: _407  and  _408
REMARK  172  A    between atoms: _414  and  _416
REMARK  173  A    between atoms: _416  and  _417
REMARK  174  A    between atoms: _416  and  _419
REMARK  175  A    between atoms: _419  and  _420
REMARK  176  A    between atoms: _420  and  _421
REMARK  177  A    between atoms: _423  and  _425
REMARK  178  A    between atoms: _425  and  _426
REMARK  179  A    between atoms: _425  and  _428
REMARK  180  A    between atoms: _428  and  _429
REMARK  181  A    between atoms: _432  and  _434
REMARK  182  A    between atoms: _434  and  _435
REMARK  183  A    between atoms: _434  and  _437
REMARK  184  A    between atoms: _437  and  _438
REMARK  185  A    between atoms: _441  and  _443
REMARK  186  A    between atoms: _443  and  _444
REMARK  187  A    between atoms: _443  and  _446
REMARK  188  A    between atoms: _446  and  _447
REMARK  189  A    between atoms: _450  and  _452
REMARK  190  A    between atoms: _452  and  _453
REMARK  191  A    between atoms: _452  and  _455
REMARK  192  A    between atoms: _455  and  _456
REMARK  193  A    between atoms: _462  and  _464
REMARK  194  A    between atoms: _464  and  _465
REMARK  195  A    between atoms: _464  and  _467
REMARK  196  A    between atoms: _467  and  _468
REMARK  197  A    between atoms: _474  and  _476
REMARK  198  A    between atoms: _476  and  _477
REMARK  199  A    between atoms: _476  and  _479
REMARK  200  A    between atoms: _479  and  _480
REMARK  201  A    between atoms: _480  and  _481
REMARK  202  A    between atoms: _483  and  _485
REMARK  203  A    between atoms: _485  and  _486
REMARK  204  A    between atoms: _485  and  _488
REMARK  205  A    between atoms: _488  and  _489
REMARK  206  A    between atoms: _489  and  _490
REMARK  207  A    between atoms: _490  and  _491
REMARK  208  A    between atoms: _491  and  _492
REMARK  209  A    between atoms: _496  and  _498
REMARK  210  A    between atoms: _498  and  _499
REMARK  211  A    between atoms: _498  and  _501
REMARK  212  A    between atoms: _501  and  _502
REMARK  213  A    between atoms: _508  and  _510
REMARK  214  A    between atoms: _510  and  _511
REMARK  215  A    between atoms: _510  and  _513
REMARK  216  A    between atoms: _513  and  _514
REMARK  217  A    between atoms: _517  and  _519
REMARK  218  A    between atoms: _519  and  _520
REMARK  219  A    between atoms: _519  and  _522
REMARK  220  A    between atoms: _522  and  _523
REMARK  221  A    between atoms: _526  and  _528
REMARK  222  A    between atoms: _528  and  _529
REMARK  223  A    between atoms: _528  and  _531
REMARK  224  A    between atoms: _534  and  _536
REMARK  225  A    between atoms: _536  and  _537
REMARK  226  A    between atoms: _536  and  _539
REMARK  227  A    between atoms: _539  and  _540
REMARK  228  A    between atoms: _545  and  _547
REMARK  229  A    between atoms: _547  and  _548
REMARK  230  A    between atoms: _547  and  _550
REMARK  231  A    between atoms: _553  and  _555
REMARK  232  A    between atoms: _555  and  _556
REMARK  233  A    between atoms: _555  and  _558
REMARK  234  A    between atoms: _558  and  _559
REMARK  235  A    between atoms: _562  and  _564
REMARK  236  A    between atoms: _564  and  _565
REMARK  237  A    between atoms: _564  and  _567
REMARK  238  A    between atoms: _567  and  _568
REMARK  239  A    between atoms: _571  and  _573
REMARK  240  A    between atoms: _573  and  _574
REMARK  241  A    between atoms: _573  and  _576
REMARK  242  A    between atoms: _576  and  _577
REMARK  243  A    between atoms: _580  and  _582
REMARK  244  A    between atoms: _582  and  _583
REMARK  245  A    between atoms: _582  and  _585
REMARK  246  A    between atoms: _585  and  _586
REMARK  247  A    between atoms: _586  and  _587
REMARK  248  A    between atoms: _589  and  _591
REMARK  249  A    between atoms: _591  and  _592
REMARK  250  A    between atoms: _591  and  _594
REMARK  251  A    between atoms: _594  and  _595
REMARK  252  A    between atoms: _597  and  _599
REMARK  253  A    between atoms: _599  and  _600
REMARK  254  A    between atoms: _599  and  _602
REMARK  255  A    between atoms: _602  and  _603
REMARK  256  A    between atoms: _606  and  _608
REMARK  257  A    between atoms: _608  and  _609
REMARK  258  A    between atoms: _608  and  _611
REMARK  259  A    between atoms: _611  and  _612
REMARK  260  A    between atoms: _617  and  _619
REMARK  261  A    between atoms: _619  and  _620
REMARK  262  A    between atoms: _619  and  _622
REMARK  263  A    between atoms: _622  and  _623
REMARK  264  A    between atoms: _626  and  _628
REMARK  265  A    between atoms: _628  and  _629
REMARK  266  A    between atoms: _628  and  _631
REMARK  267  A    between atoms: _631  and  _632
REMARK  268  A    between atoms: _632  and  _633
REMARK  269  A    between atoms: _638  and  _640
REMARK  270  A    between atoms: _640  and  _641
REMARK  271  A    between atoms: _640  and  _643
REMARK  272  A    between atoms: _643  and  _644
REMARK  273  A    between atoms: _647  and  _649
REMARK  274  A    between atoms: _649  and  _650
REMARK  275  A    between atoms: _649  and  _652
REMARK  276  A    between atoms: _652  and  _653
REMARK  277  A    between atoms: _658  and  _659
REMARK                            x       y       z     vdW  Elec       q    Type
REMARK                         _______ _______ _______ _____ _____    ______ ____
ROOT
ATOM      1  O   HOH     1      12.989  20.174   9.532  0.00  0.00    +0.000 OA
ENDROOT
TORSDOF 0
REMARK  Name = ../refined-set-2016/2i4z/2i4z_pocket.pdb
REMARK  277 active torsions:
REMARK  status: ('A' for Active; 'I' for Inactive)
REMARK    1  A    between atoms: _1  and  _3
REMARK    2  A    between atoms: _3  and  _4
REMARK    3  A    between atoms: _3  and  _6
REMARK    4  A    between atoms: _6  and  _7
REMARK    5  A    between atoms: _12  and  _13
REMARK    6  A    between atoms: _15  and  _17
REMARK    7  A    between atoms: _17  and  _18
REMARK    8  A    between atoms: _17  and  _20
REMARK    9  A    between atoms: _20  and  _21
REMARK   10  A    between atoms: _23  and  _25
REMARK   11  A    between atoms: _25  and  _26
REMARK   12  A    between atoms: _25  and  _28
REMARK   13  A    between atoms: _28  and  _29
REMARK   14  A    between atoms: _36  and  _37
REMARK   15  A    between atoms: _42  and  _44
REMARK   16  A    between atoms: _44  and  _45
REMARK   17  A    between atoms: _44  and  _47
REMARK   18  A    between atoms: _47  and  _48
REMARK   19  A    between atoms: _51  and  _53
REMARK   20  A    between atoms: _53  and  _54
REMARK   21  A    between atoms: _53  and  _56
REMARK   22  A    between atoms: _56  and  _57
REMARK   23  A    between atoms: _63  and  _65
REMARK   24  A    between atoms: _65  and  _66
REMARK   25  A    between atoms: _65  and  _68
REMARK   26  A    between atoms: _68  and  _69
REMARK   27  A    between atoms: _72  and  _74
REMARK   28  A    between atoms: _74  and  _75
REMARK   29  A    between atoms: _74  and  _77
REMARK   30  A    between atoms: _77  and  _78
REMARK   31  A    between atoms: _81  and  _83
REMARK   32  A    between atoms: _83  and  _84
REMARK   33  A    between atoms: _83  and  _86
REMARK   34  A    between atoms: _86  and  _87
REMARK   35  A    between atoms: _93  and  _95
REMARK   36  A    between atoms: _95  and  _96
REMARK   37  A    between atoms: _95  and  _98
REMARK   38  A    between atoms: _98  and  _99
REMARK   39  A    between atoms: _99  and  _100
REMARK   40  A    between atoms: _105  and  _107
REMARK   41  A    between atoms: _107  and  _108
REMARK   42  A    between atoms: _110  and  _112
REMARK   43  A    between atoms: _112  and  _113
REMARK   44  A    between atoms: _112  and  _115
REMARK   45  A    between atoms: _117  and  _119
REMARK   46  A    between atoms: _119  and  _120
REMARK   47  A    between atoms: _119  and  _122
REMARK   48  A    between atoms: _122  and  _123
REMARK   49  A    between atoms: _123  and  _124
REMARK   50  A    between atoms: _129  and  _131
REMARK   51  A    between atoms: _131  and  _132
REMARK   52  A    between atoms: _131  and  _134
REMARK   53  A    between atoms: _134  and  _135
REMARK   54  A    between atoms: _141  and  _143
REMARK   55  A    between atoms: _143  and  _144
REMARK   56  A    between atoms: _143  and  _146
REMARK   57  A    between atoms: _146  and  _147
REMARK   58  A    between atoms: _147  and  _148
REMARK   59  A    between atoms: _148  and  _149
REMARK   60  A    between atoms: _158  and  _160
REMARK   61  A    between atoms: _160  and  _161
REMARK   62  A    between atoms: _160  and  _163
REMARK   63  A    between atoms: _163  and  _164
REMARK   64  A    between atoms: _166  and  _168
REMARK   65  A    between atoms: _168  and  _169
REMARK   66  A    between atoms: _168  and  _171
REMARK   67  A    between atoms: _174  and  _176
REMARK   68  A    between atoms: _176  and  _177
REMARK   69  A    between atoms: _176  and  _179
REMARK   70  A    between atoms: _179  and  _180
REMARK   71  A    between atoms: _180  and  _181
REMARK   72  A    between atoms: _184  and  _186
REMARK   73  A    between atoms: _186  and  _187
REMARK   74  A    between atoms: _190  and  _192
REMARK   75  A    between atoms: _192  and  _193
REMARK   76  A    between atoms: _192  and  _195
REMARK   77  A    between atoms: _198  and  _200
REMARK   78  A    between atoms: _200  and  _201
REMARK   79  A    between atoms: _200  and  _203
REMARK   80  A    between atoms: _203  and  _204
REMARK   81  A    between atoms: _204  and  _205
REMARK   82  A    between atoms: _210  and  _212
REMARK   83  A    between atoms: _212  and  _213
REMARK   84  A    between atoms: _212  and  _215
REMARK   85  A    between atoms: _215  and  _216
REMARK   86  A    between atoms: _216  and  _217
REMARK   87  A    between atoms: _220  and  _222
REMARK   88  A    between atoms: _222  and  _223
REMARK   89  A    between atoms: _222  and  _225
REMARK   90  A    between atoms: _225  and  _226
REMARK   91  A    between atoms: _229  and  _231
REMARK   92  A    between atoms: _231  and  _232
REMARK   93  A    between atoms: _231  and  _234
REMARK   94  A    between atoms: _234  and  _235
REMARK   95  A    between atoms: _238  and  _240
REMARK   96  A    between atoms: _240  and  _241
REMARK   97  A    between atoms: _240  and  _243
REMARK   98  A    between atoms: _246  and  _248
REMARK   99  A    between atoms: _248  and  _249
REMARK  100  A    between atoms: _248  and  _251
REMARK  101  A    between atoms: _251  and  _252
REMARK  102  A    between atoms: _257  and  _259
REMARK  103  A    between atoms: _259  and  _260
REMARK  104  A    between atoms: _259  and  _262
REMARK  105  A    between atoms: _262  and  _263
REMARK  106  A    between atoms: _263  and  _264
REMARK  107  A    between atoms: _267  and  _269
REMARK  108  A    between atoms: _269  and  _270
REMARK  109  A    between atoms: _269  and  _272
REMARK  110  A    between atoms: _272  and  _273
REMARK  111  A    between atoms: _276  and  _278
REMARK  112  A    between atoms: _278  and  _279
REMARK  113  A    between atoms: _278  and  _281
REMARK  114  A    between atoms: _281  and  _282
REMARK  115  A    between atoms: _285  and  _287
REMARK  116  A    between atoms: _287  and  _288
REMARK  117  A    between atoms: _287  and  _290
REMARK  118  A    between atoms: _290  and  _291
REMARK  119  A    between atoms: _296  and  _297
REMARK  120  A    between atoms: _299  and  _301
REMARK  121  A    between atoms: _301  and  _302
REMARK  122  A    between atoms: _301  and  _304
REMARK  123  A    between atoms: _304  and  _305
REMARK  124  A    between atoms: _308  and  _310
REMARK  125  A    between atoms: _310  and  _311
REMARK  126  A    between atoms: _310  and  _313
REMARK  127  A    between atoms: _313  and  _314
REMARK  128  A    between atoms: _314  and  _315
REMARK  129  A    between atoms: _317  and  _319
REMARK  130  A    between atoms: _319  and  _320
REMARK  131  A    between atoms: _319  and  _322
REMARK  132  A    between atoms: _322  and  _323
REMARK  133  A    between atoms: _326  and  _328
REMARK  134  A    between atoms: _328  and  _329
REMARK  135  A    between atoms: _332  and  _334
REMARK  136  A    between atoms: _334  and  _335
REMARK  137  A    between atoms: _334  and  _337
REMARK  138  A    between atoms: _337  and  _338
REMARK  139  A    between atoms: _340  and  _342
REMARK  140  A    between atoms: _342  and  _343
REMARK  141  A    between atoms: _342  and  _345
REMARK  142  A    between atoms: _345  and  _346
REMARK  143  A    between atoms: _349  and  _351
REMARK  144  A    between atoms: _351  and  _352
REMARK  145  A    between atoms: _351  and  _354
REMARK  146  A    between atoms: _354  and  _355
REMARK  147  A    between atoms: _355  and  _356
REMARK  148  A    between atoms: _358  and  _360
REMARK  149  A    between atoms: _360  and  _361
REMARK  150  A    between atoms: _360  and  _363
REMARK  151  A    between atoms: _366  and  _368
REMARK  152  A    between atoms: _368  and  _369
REMARK  153  A    between atoms: _368  and  _371
REMARK  154  A    between atoms: _371  and  _372
REMARK  155  A    between atoms: _375  and  _377
REMARK  156  A    between atoms: _377  and  _378
REMARK  157  A    between atoms: _377  and  _380
REMARK  158  A    between atoms: _380  and  _381
REMARK  159  A    between atoms: _384  and  _386
REMARK  160  A    between atoms: _386  and  _387
REMARK  161  A    between atoms: _386  and  _389
REMARK  162  A    between atoms: _389  and  _390
REMARK  163  A    between atoms: _392  and  _394
REMARK  164  A    between atoms: _394  and  _395
REMARK  165  A    between atoms: _394  and  _397
REMARK  166  A    between atoms: _397  and  _398
REMARK  167  A    between atoms: _398  and  _399
REMARK  168  A    between atoms: _402  and  _404
REMARK  169  A    between atoms: _404  and  _405
REMARK  170  A    between atoms: _404  and  _407
REMARK  171  A    between atoms: _407  and  _408
REMARK  172  A    between atoms: _414  and  _416
REMARK  173  A    between atoms: _416  and  _417
REMARK  174  A    between atoms: _416  and  _419
REMARK  175  A    between atoms: _419  and  _420
REMARK  176  A    between atoms: _420  and  _421
REMARK  177  A    between atoms: _423  and  _425
REMARK  178  A    between atoms: _425  and  _426
REMARK  179  A    between atoms: _425  and  _428
REMARK  180  A    between atoms: _428  and  _429
REMARK  181  A    between atoms: _432  and  _434
REMARK  182  A    between atoms: _434  and  _435
REMARK  183  A    between atoms: _434  and  _437
REMARK  184  A    between atoms: _437  and  _438
REMARK  185  A    between atoms: _441  and  _443
REMARK  186  A    between atoms: _443  and  _444
REMARK  187  A    between atoms: _443  and  _446
REMARK  188  A    between atoms: _446  and  _447
REMARK  189  A    between atoms: _450  and  _452
REMARK  190  A    between atoms: _452  and  _453
REMARK  191  A    between atoms: _452  and  _455
REMARK  192  A    between atoms: _455  and  _456
REMARK  193  A    between atoms: _462  and  _464
REMARK  194  A    between atoms: _464  and  _465
REMARK  195  A    between atoms: _464  and  _467
REMARK  196  A    between atoms: _467  and  _468
REMARK  197  A    between atoms: _474  and  _476
REMARK  198  A    between atoms: _476  and  _477
REMARK  199  A    between atoms: _476  and  _479
REMARK  200  A    between atoms: _479  and  _480
REMARK  201  A    between atoms: _480  and  _481
REMARK  202  A    between atoms: _483  and  _485
REMARK  203  A    between atoms: _485  and  _486
REMARK  204  A    between atoms: _485  and  _488
REMARK  205  A    between atoms: _488  and  _489
REMARK  206  A    between atoms: _489  and  _490
REMARK  207  A    between atoms: _490  and  _491
REMARK  208  A    between atoms: _491  and  _492
REMARK  209  A    between atoms: _496  and  _498
REMARK  210  A    between atoms: _498  and  _499
REMARK  211  A    between atoms: _498  and  _501
REMARK  212  A    between atoms: _501  and  _502
REMARK  213  A    between atoms: _508  and  _510
REMARK  214  A    between atoms: _510  and  _511
REMARK  215  A    between atoms: _510  and  _513
REMARK  216  A    between atoms: _513  and  _514
REMARK  217  A    between atoms: _517  and  _519
REMARK  218  A    between atoms: _519  and  _520
REMARK  219  A    between atoms: _519  and  _522
REMARK  220  A    between atoms: _522  and  _523
REMARK  221  A    between atoms: _526  and  _528
REMARK  222  A    between atoms: _528  and  _529
REMARK  223  A    between atoms: _528  and  _531
REMARK  224  A    between atoms: _534  and  _536
REMARK  225  A    between atoms: _536  and  _537
REMARK  226  A    between atoms: _536  and  _539
REMARK  227  A    between atoms: _539  and  _540
REMARK  228  A    between atoms: _545  and  _547
REMARK  229  A    between atoms: _547  and  _548
REMARK  230  A    between atoms: _547  and  _550
REMARK  231  A    between atoms: _553  and  _555
REMARK  232  A    between atoms: _555  and  _556
REMARK  233  A    between atoms: _555  and  _558
REMARK  234  A    between atoms: _558  and  _559
REMARK  235  A    between atoms: _562  and  _564
REMARK  236  A    between atoms: _564  and  _565
REMARK  237  A    between atoms: _564  and  _567
REMARK  238  A    between atoms: _567  and  _568
REMARK  239  A    between atoms: _571  and  _573
REMARK  240  A    between atoms: _573  and  _574
REMARK  241  A    between atoms: _573  and  _576
REMARK  242  A    between atoms: _576  and  _577
REMARK  243  A    between atoms: _580  and  _582
REMARK  244  A    between atoms: _582  and  _583
REMARK  245  A    between atoms: _582  and  _585
REMARK  246  A    between atoms: _585  and  _586
REMARK  247  A    between atoms: _586  and  _587
REMARK  248  A    between atoms: _589  and  _591
REMARK  249  A    between atoms: _591  and  _592
REMARK  250  A    between atoms: _591  and  _594
REMARK  251  A    between atoms: _594  and  _595
REMARK  252  A    between atoms: _597  and  _599
REMARK  253  A    between atoms: _599  and  _600
REMARK  254  A    between atoms: _599  and  _602
REMARK  255  A    between atoms: _602  and  _603
REMARK  256  A    between atoms: _606  and  _608
REMARK  257  A    between atoms: _608  and  _609
REMARK  258  A    between atoms: _608  and  _611
REMARK  259  A    between atoms: _611  and  _612
REMARK  260  A    between atoms: _617  and  _619
REMARK  261  A    between atoms: _619  and  _620
REMARK  262  A    between atoms: _619  and  _622
REMARK  263  A    between atoms: _622  and  _623
REMARK  264  A    between atoms: _626  and  _628
REMARK  265  A    between atoms: _628  and  _629
REMARK  266  A    between atoms: _628  and  _631
REMARK  267  A    between atoms: _631  and  _632
REMARK  268  A    between atoms: _632  and  _633
REMARK  269  A    between atoms: _638  and  _640
REMARK  270  A    between atoms: _640  and  _641
REMARK  271  A    between atoms: _640  and  _643
REMARK  272  A    between atoms: _643  and  _644
REMARK  273  A    between atoms: _647  and  _649
REMARK  274  A    between atoms: _649  and  _650
REMARK  275  A    between atoms: _649  and  _652
REMARK  276  A    between atoms: _652  and  _653
REMARK  277  A    between atoms: _658  and  _659
REMARK                            x       y       z     vdW  Elec       q    Type
REMARK                         _______ _______ _______ _____ _____    ______ ____
ROOT
ATOM      1  O   HOH     1      20.237  12.741  22.355  0.00  0.00    +0.000 OA
ENDROOT
TORSDOF 0
REMARK  Name = ../refined-set-2016/2i4z/2i4z_pocket.pdb
REMARK  277 active torsions:
REMARK  status: ('A' for Active; 'I' for Inactive)
REMARK    1  A    between atoms: _1  and  _3
REMARK    2  A    between atoms: _3  and  _4
REMARK    3  A    between atoms: _3  and  _6
REMARK    4  A    between atoms: _6  and  _7
REMARK    5  A    between atoms: _12  and  _13
REMARK    6  A    between atoms: _15  and  _17
REMARK    7  A    between atoms: _17  and  _18
REMARK    8  A    between atoms: _17  and  _20
REMARK    9  A    between atoms: _20  and  _21
REMARK   10  A    between atoms: _23  and  _25
REMARK   11  A    between atoms: _25  and  _26
REMARK   12  A    between atoms: _25  and  _28
REMARK   13  A    between atoms: _28  and  _29
REMARK   14  A    between atoms: _36  and  _37
REMARK   15  A    between atoms: _42  and  _44
REMARK   16  A    between atoms: _44  and  _45
REMARK   17  A    between atoms: _44  and  _47
REMARK   18  A    between atoms: _47  and  _48
REMARK   19  A    between atoms: _51  and  _53
REMARK   20  A    between atoms: _53  and  _54
REMARK   21  A    between atoms: _53  and  _56
REMARK   22  A    between atoms: _56  and  _57
REMARK   23  A    between atoms: _63  and  _65
REMARK   24  A    between atoms: _65  and  _66
REMARK   25  A    between atoms: _65  and  _68
REMARK   26  A    between atoms: _68  and  _69
REMARK   27  A    between atoms: _72  and  _74
REMARK   28  A    between atoms: _74  and  _75
REMARK   29  A    between atoms: _74  and  _77
REMARK   30  A    between atoms: _77  and  _78
REMARK   31  A    between atoms: _81  and  _83
REMARK   32  A    between atoms: _83  and  _84
REMARK   33  A    between atoms: _83  and  _86
REMARK   34  A    between atoms: _86  and  _87
REMARK   35  A    between atoms: _93  and  _95
REMARK   36  A    between atoms: _95  and  _96
REMARK   37  A    between atoms: _95  and  _98
REMARK   38  A    between atoms: _98  and  _99
REMARK   39  A    between atoms: _99  and  _100
REMARK   40  A    between atoms: _105  and  _107
REMARK   41  A    between atoms: _107  and  _108
REMARK   42  A    between atoms: _110  and  _112
REMARK   43  A    between atoms: _112  and  _113
REMARK   44  A    between atoms: _112  and  _115
REMARK   45  A    between atoms: _117  and  _119
REMARK   46  A    between atoms: _119  and  _120
REMARK   47  A    between atoms: _119  and  _122
REMARK   48  A    between atoms: _122  and  _123
REMARK   49  A    between atoms: _123  and  _124
REMARK   50  A    between atoms: _129  and  _131
REMARK   51  A    between atoms: _131  and  _132
REMARK   52  A    between atoms: _131  and  _134
REMARK   53  A    between atoms: _134  and  _135
REMARK   54  A    between atoms: _141  and  _143
REMARK   55  A    between atoms: _143  and  _144
REMARK   56  A    between atoms: _143  and  _146
REMARK   57  A    between atoms: _146  and  _147
REMARK   58  A    between atoms: _147  and  _148
REMARK   59  A    between atoms: _148  and  _149
REMARK   60  A    between atoms: _158  and  _160
REMARK   61  A    between atoms: _160  and  _161
REMARK   62  A    between atoms: _160  and  _163
REMARK   63  A    between atoms: _163  and  _164
REMARK   64  A    between atoms: _166  and  _168
REMARK   65  A    between atoms: _168  and  _169
REMARK   66  A    between atoms: _168  and  _171
REMARK   67  A    between atoms: _174  and  _176
REMARK   68  A    between atoms: _176  and  _177
REMARK   69  A    between atoms: _176  and  _179
REMARK   70  A    between atoms: _179  and  _180
REMARK   71  A    between atoms: _180  and  _181
REMARK   72  A    between atoms: _184  and  _186
REMARK   73  A    between atoms: _186  and  _187
REMARK   74  A    between atoms: _190  and  _192
REMARK   75  A    between atoms: _192  and  _193
REMARK   76  A    between atoms: _192  and  _195
REMARK   77  A    between atoms: _198  and  _200
REMARK   78  A    between atoms: _200  and  _201
REMARK   79  A    between atoms: _200  and  _203
REMARK   80  A    between atoms: _203  and  _204
REMARK   81  A    between atoms: _204  and  _205
REMARK   82  A    between atoms: _210  and  _212
REMARK   83  A    between atoms: _212  and  _213
REMARK   84  A    between atoms: _212  and  _215
REMARK   85  A    between atoms: _215  and  _216
REMARK   86  A    between atoms: _216  and  _217
REMARK   87  A    between atoms: _220  and  _222
REMARK   88  A    between atoms: _222  and  _223
REMARK   89  A    between atoms: _222  and  _225
REMARK   90  A    between atoms: _225  and  _226
REMARK   91  A    between atoms: _229  and  _231
REMARK   92  A    between atoms: _231  and  _232
REMARK   93  A    between atoms: _231  and  _234
REMARK   94  A    between atoms: _234  and  _235
REMARK   95  A    between atoms: _238  and  _240
REMARK   96  A    between atoms: _240  and  _241
REMARK   97  A    between atoms: _240  and  _243
REMARK   98  A    between atoms: _246  and  _248
REMARK   99  A    between atoms: _248  and  _249
REMARK  100  A    between atoms: _248  and  _251
REMARK  101  A    between atoms: _251  and  _252
REMARK  102  A    between atoms: _257  and  _259
REMARK  103  A    between atoms: _259  and  _260
REMARK  104  A    between atoms: _259  and  _262
REMARK  105  A    between atoms: _262  and  _263
REMARK  106  A    between atoms: _263  and  _264
REMARK  107  A    between atoms: _267  and  _269
REMARK  108  A    between atoms: _269  and  _270
REMARK  109  A    between atoms: _269  and  _272
REMARK  110  A    between atoms: _272  and  _273
REMARK  111  A    between atoms: _276  and  _278
REMARK  112  A    between atoms: _278  and  _279
REMARK  113  A    between atoms: _278  and  _281
REMARK  114  A    between atoms: _281  and  _282
REMARK  115  A    between atoms: _285  and  _287
REMARK  116  A    between atoms: _287  and  _288
REMARK  117  A    between atoms: _287  and  _290
REMARK  118  A    between atoms: _290  and  _291
REMARK  119  A    between atoms: _296  and  _297
REMARK  120  A    between atoms: _299  and  _301
REMARK  121  A    between atoms: _301  and  _302
REMARK  122  A    between atoms: _301  and  _304
REMARK  123  A    between atoms: _304  and  _305
REMARK  124  A    between atoms: _308  and  _310
REMARK  125  A    between atoms: _310  and  _311
REMARK  126  A    between atoms: _310  and  _313
REMARK  127  A    between atoms: _313  and  _314
REMARK  128  A    between atoms: _314  and  _315
REMARK  129  A    between atoms: _317  and  _319
REMARK  130  A    between atoms: _319  and  _320
REMARK  131  A    between atoms: _319  and  _322
REMARK  132  A    between atoms: _322  and  _323
REMARK  133  A    between atoms: _326  and  _328
REMARK  134  A    between atoms: _328  and  _329
REMARK  135  A    between atoms: _332  and  _334
REMARK  136  A    between atoms: _334  and  _335
REMARK  137  A    between atoms: _334  and  _337
REMARK  138  A    between atoms: _337  and  _338
REMARK  139  A    between atoms: _340  and  _342
REMARK  140  A    between atoms: _342  and  _343
REMARK  141  A    between atoms: _342  and  _345
REMARK  142  A    between atoms: _345  and  _346
REMARK  143  A    between atoms: _349  and  _351
REMARK  144  A    between atoms: _351  and  _352
REMARK  145  A    between atoms: _351  and  _354
REMARK  146  A    between atoms: _354  and  _355
REMARK  147  A    between atoms: _355  and  _356
REMARK  148  A    between atoms: _358  and  _360
REMARK  149  A    between atoms: _360  and  _361
REMARK  150  A    between atoms: _360  and  _363
REMARK  151  A    between atoms: _366  and  _368
REMARK  152  A    between atoms: _368  and  _369
REMARK  153  A    between atoms: _368  and  _371
REMARK  154  A    between atoms: _371  and  _372
REMARK  155  A    between atoms: _375  and  _377
REMARK  156  A    between atoms: _377  and  _378
REMARK  157  A    between atoms: _377  and  _380
REMARK  158  A    between atoms: _380  and  _381
REMARK  159  A    between atoms: _384  and  _386
REMARK  160  A    between atoms: _386  and  _387
REMARK  161  A    between atoms: _386  and  _389
REMARK  162  A    between atoms: _389  and  _390
REMARK  163  A    between atoms: _392  and  _394
REMARK  164  A    between atoms: _394  and  _395
REMARK  165  A    between atoms: _394  and  _397
REMARK  166  A    between atoms: _397  and  _398
REMARK  167  A    between atoms: _398  and  _399
REMARK  168  A    between atoms: _402  and  _404
REMARK  169  A    between atoms: _404  and  _405
REMARK  170  A    between atoms: _404  and  _407
REMARK  171  A    between atoms: _407  and  _408
REMARK  172  A    between atoms: _414  and  _416
REMARK  173  A    between atoms: _416  and  _417
REMARK  174  A    between atoms: _416  and  _419
REMARK  175  A    between atoms: _419  and  _420
REMARK  176  A    between atoms: _420  and  _421
REMARK  177  A    between atoms: _423  and  _425
REMARK  178  A    between atoms: _425  and  _426
REMARK  179  A    between atoms: _425  and  _428
REMARK  180  A    between atoms: _428  and  _429
REMARK  181  A    between atoms: _432  and  _434
REMARK  182  A    between atoms: _434  and  _435
REMARK  183  A    between atoms: _434  and  _437
REMARK  184  A    between atoms: _437  and  _438
REMARK  185  A    between atoms: _441  and  _443
REMARK  186  A    between atoms: _443  and  _444
REMARK  187  A    between atoms: _443  and  _446
REMARK  188  A    between atoms: _446  and  _447
REMARK  189  A    between atoms: _450  and  _452
REMARK  190  A    between atoms: _452  and  _453
REMARK  191  A    between atoms: _452  and  _455
REMARK  192  A    between atoms: _455  and  _456
REMARK  193  A    between atoms: _462  and  _464
REMARK  194  A    between atoms: _464  and  _465
REMARK  195  A    between atoms: _464  and  _467
REMARK  196  A    between atoms: _467  and  _468
REMARK  197  A    between atoms: _474  and  _476
REMARK  198  A    between atoms: _476  and  _477
REMARK  199  A    between atoms: _476  and  _479
REMARK  200  A    between atoms: _479  and  _480
REMARK  201  A    between atoms: _480  and  _481
REMARK  202  A    between atoms: _483  and  _485
REMARK  203  A    between atoms: _485  and  _486
REMARK  204  A    between atoms: _485  and  _488
REMARK  205  A    between atoms: _488  and  _489
REMARK  206  A    between atoms: _489  and  _490
REMARK  207  A    between atoms: _490  and  _491
REMARK  208  A    between atoms: _491  and  _492
REMARK  209  A    between atoms: _496  and  _498
REMARK  210  A    between atoms: _498  and  _499
REMARK  211  A    between atoms: _498  and  _501
REMARK  212  A    between atoms: _501  and  _502
REMARK  213  A    between atoms: _508  and  _510
REMARK  214  A    between atoms: _510  and  _511
REMARK  215  A    between atoms: _510  and  _513
REMARK  216  A    between atoms: _513  and  _514
REMARK  217  A    between atoms: _517  and  _519
REMARK  218  A    between atoms: _519  and  _520
REMARK  219  A    between atoms: _519  and  _522
REMARK  220  A    between atoms: _522  and  _523
REMARK  221  A    between atoms: _526  and  _528
REMARK  222  A    between atoms: _528  and  _529
REMARK  223  A    between atoms: _528  and  _531
REMARK  224  A    between atoms: _534  and  _536
REMARK  225  A    between atoms: _536  and  _537
REMARK  226  A    between atoms: _536  and  _539
REMARK  227  A    between atoms: _539  and  _540
REMARK  228  A    between atoms: _545  and  _547
REMARK  229  A    between atoms: _547  and  _548
REMARK  230  A    between atoms: _547  and  _550
REMARK  231  A    between atoms: _553  and  _555
REMARK  232  A    between atoms: _555  and  _556
REMARK  233  A    between atoms: _555  and  _558
REMARK  234  A    between atoms: _558  and  _559
REMARK  235  A    between atoms: _562  and  _564
REMARK  236  A    between atoms: _564  and  _565
REMARK  237  A    between atoms: _564  and  _567
REMARK  238  A    between atoms: _567  and  _568
REMARK  239  A    between atoms: _571  and  _573
REMARK  240  A    between atoms: _573  and  _574
REMARK  241  A    between atoms: _573  and  _576
REMARK  242  A    between atoms: _576  and  _577
REMARK  243  A    between atoms: _580  and  _582
REMARK  244  A    between atoms: _582  and  _583
REMARK  245  A    between atoms: _582  and  _585
REMARK  246  A    between atoms: _585  and  _586
REMARK  247  A    between atoms: _586  and  _587
REMARK  248  A    between atoms: _589  and  _591
REMARK  249  A    between atoms: _591  and  _592
REMARK  250  A    between atoms: _591  and  _594
REMARK  251  A    between atoms: _594  and  _595
REMARK  252  A    between atoms: _597  and  _599
REMARK  253  A    between atoms: _599  and  _600
REMARK  254  A    between atoms: _599  and  _602
REMARK  255  A    between atoms: _602  and  _603
REMARK  256  A    between atoms: _606  and  _608
REMARK  257  A    between atoms: _608  and  _609
REMARK  258  A    between atoms: _608  and  _611
REMARK  259  A    between atoms: _611  and  _612
REMARK  260  A    between atoms: _617  and  _619
REMARK  261  A    between atoms: _619  and  _620
REMARK  262  A    between atoms: _619  and  _622
REMARK  263  A    between atoms: _622  and  _623
REMARK  264  A    between atoms: _626  and  _628
REMARK  265  A    between atoms: _628  and  _629
REMARK  266  A    between atoms: _628  and  _631
REMARK  267  A    between atoms: _631  and  _632
REMARK  268  A    between atoms: _632  and  _633
REMARK  269  A    between atoms: _638  and  _640
REMARK  270  A    between atoms: _640  and  _641
REMARK  271  A    between atoms: _640  and  _643
REMARK  272  A    between atoms: _643  and  _644
REMARK  273  A    between atoms: _647  and  _649
REMARK  274  A    between atoms: _649  and  _650
REMARK  275  A    between atoms: _649  and  _652
REMARK  276  A    between atoms: _652  and  _653
REMARK  277  A    between atoms: _658  and  _659
REMARK                            x       y       z     vdW  Elec       q    Type
REMARK                         _______ _______ _______ _____ _____    ______ ____
ROOT
ATOM      1  O   HOH     1      10.592  17.864   9.513  0.00  0.00    +0.000 OA
ENDROOT
TORSDOF 0
REMARK  Name = ../refined-set-2016/2i4z/2i4z_pocket.pdb
REMARK  277 active torsions:
REMARK  status: ('A' for Active; 'I' for Inactive)
REMARK    1  A    between atoms: _1  and  _3
REMARK    2  A    between atoms: _3  and  _4
REMARK    3  A    between atoms: _3  and  _6
REMARK    4  A    between atoms: _6  and  _7
REMARK    5  A    between atoms: _12  and  _13
REMARK    6  A    between atoms: _15  and  _17
REMARK    7  A    between atoms: _17  and  _18
REMARK    8  A    between atoms: _17  and  _20
REMARK    9  A    between atoms: _20  and  _21
REMARK   10  A    between atoms: _23  and  _25
REMARK   11  A    between atoms: _25  and  _26
REMARK   12  A    between atoms: _25  and  _28
REMARK   13  A    between atoms: _28  and  _29
REMARK   14  A    between atoms: _36  and  _37
REMARK   15  A    between atoms: _42  and  _44
REMARK   16  A    between atoms: _44  and  _45
REMARK   17  A    between atoms: _44  and  _47
REMARK   18  A    between atoms: _47  and  _48
REMARK   19  A    between atoms: _51  and  _53
REMARK   20  A    between atoms: _53  and  _54
REMARK   21  A    between atoms: _53  and  _56
REMARK   22  A    between atoms: _56  and  _57
REMARK   23  A    between atoms: _63  and  _65
REMARK   24  A    between atoms: _65  and  _66
REMARK   25  A    between atoms: _65  and  _68
REMARK   26  A    between atoms: _68  and  _69
REMARK   27  A    between atoms: _72  and  _74
REMARK   28  A    between atoms: _74  and  _75
REMARK   29  A    between atoms: _74  and  _77
REMARK   30  A    between atoms: _77  and  _78
REMARK   31  A    between atoms: _81  and  _83
REMARK   32  A    between atoms: _83  and  _84
REMARK   33  A    between atoms: _83  and  _86
REMARK   34  A    between atoms: _86  and  _87
REMARK   35  A    between atoms: _93  and  _95
REMARK   36  A    between atoms: _95  and  _96
REMARK   37  A    between atoms: _95  and  _98
REMARK   38  A    between atoms: _98  and  _99
REMARK   39  A    between atoms: _99  and  _100
REMARK   40  A    between atoms: _105  and  _107
REMARK   41  A    between atoms: _107  and  _108
REMARK   42  A    between atoms: _110  and  _112
REMARK   43  A    between atoms: _112  and  _113
REMARK   44  A    between atoms: _112  and  _115
REMARK   45  A    between atoms: _117  and  _119
REMARK   46  A    between atoms: _119  and  _120
REMARK   47  A    between atoms: _119  and  _122
REMARK   48  A    between atoms: _122  and  _123
REMARK   49  A    between atoms: _123  and  _124
REMARK   50  A    between atoms: _129  and  _131
REMARK   51  A    between atoms: _131  and  _132
REMARK   52  A    between atoms: _131  and  _134
REMARK   53  A    between atoms: _134  and  _135
REMARK   54  A    between atoms: _141  and  _143
REMARK   55  A    between atoms: _143  and  _144
REMARK   56  A    between atoms: _143  and  _146
REMARK   57  A    between atoms: _146  and  _147
REMARK   58  A    between atoms: _147  and  _148
REMARK   59  A    between atoms: _148  and  _149
REMARK   60  A    between atoms: _158  and  _160
REMARK   61  A    between atoms: _160  and  _161
REMARK   62  A    between atoms: _160  and  _163
REMARK   63  A    between atoms: _163  and  _164
REMARK   64  A    between atoms: _166  and  _168
REMARK   65  A    between atoms: _168  and  _169
REMARK   66  A    between atoms: _168  and  _171
REMARK   67  A    between atoms: _174  and  _176
REMARK   68  A    between atoms: _176  and  _177
REMARK   69  A    between atoms: _176  and  _179
REMARK   70  A    between atoms: _179  and  _180
REMARK   71  A    between atoms: _180  and  _181
REMARK   72  A    between atoms: _184  and  _186
REMARK   73  A    between atoms: _186  and  _187
REMARK   74  A    between atoms: _190  and  _192
REMARK   75  A    between atoms: _192  and  _193
REMARK   76  A    between atoms: _192  and  _195
REMARK   77  A    between atoms: _198  and  _200
REMARK   78  A    between atoms: _200  and  _201
REMARK   79  A    between atoms: _200  and  _203
REMARK   80  A    between atoms: _203  and  _204
REMARK   81  A    between atoms: _204  and  _205
REMARK   82  A    between atoms: _210  and  _212
REMARK   83  A    between atoms: _212  and  _213
REMARK   84  A    between atoms: _212  and  _215
REMARK   85  A    between atoms: _215  and  _216
REMARK   86  A    between atoms: _216  and  _217
REMARK   87  A    between atoms: _220  and  _222
REMARK   88  A    between atoms: _222  and  _223
REMARK   89  A    between atoms: _222  and  _225
REMARK   90  A    between atoms: _225  and  _226
REMARK   91  A    between atoms: _229  and  _231
REMARK   92  A    between atoms: _231  and  _232
REMARK   93  A    between atoms: _231  and  _234
REMARK   94  A    between atoms: _234  and  _235
REMARK   95  A    between atoms: _238  and  _240
REMARK   96  A    between atoms: _240  and  _241
REMARK   97  A    between atoms: _240  and  _243
REMARK   98  A    between atoms: _246  and  _248
REMARK   99  A    between atoms: _248  and  _249
REMARK  100  A    between atoms: _248  and  _251
REMARK  101  A    between atoms: _251  and  _252
REMARK  102  A    between atoms: _257  and  _259
REMARK  103  A    between atoms: _259  and  _260
REMARK  104  A    between atoms: _259  and  _262
REMARK  105  A    between atoms: _262  and  _263
REMARK  106  A    between atoms: _263  and  _264
REMARK  107  A    between atoms: _267  and  _269
REMARK  108  A    between atoms: _269  and  _270
REMARK  109  A    between atoms: _269  and  _272
REMARK  110  A    between atoms: _272  and  _273
REMARK  111  A    between atoms: _276  and  _278
REMARK  112  A    between atoms: _278  and  _279
REMARK  113  A    between atoms: _278  and  _281
REMARK  114  A    between atoms: _281  and  _282
REMARK  115  A    between atoms: _285  and  _287
REMARK  116  A    between atoms: _287  and  _288
REMARK  117  A    between atoms: _287  and  _290
REMARK  118  A    between atoms: _290  and  _291
REMARK  119  A    between atoms: _296  and  _297
REMARK  120  A    between atoms: _299  and  _301
REMARK  121  A    between atoms: _301  and  _302
REMARK  122  A    between atoms: _301  and  _304
REMARK  123  A    between atoms: _304  and  _305
REMARK  124  A    between atoms: _308  and  _310
REMARK  125  A    between atoms: _310  and  _311
REMARK  126  A    between atoms: _310  and  _313
REMARK  127  A    between atoms: _313  and  _314
REMARK  128  A    between atoms: _314  and  _315
REMARK  129  A    between atoms: _317  and  _319
REMARK  130  A    between atoms: _319  and  _320
REMARK  131  A    between atoms: _319  and  _322
REMARK  132  A    between atoms: _322  and  _323
REMARK  133  A    between atoms: _326  and  _328
REMARK  134  A    between atoms: _328  and  _329
REMARK  135  A    between atoms: _332  and  _334
REMARK  136  A    between atoms: _334  and  _335
REMARK  137  A    between atoms: _334  and  _337
REMARK  138  A    between atoms: _337  and  _338
REMARK  139  A    between atoms: _340  and  _342
REMARK  140  A    between atoms: _342  and  _343
REMARK  141  A    between atoms: _342  and  _345
REMARK  142  A    between atoms: _345  and  _346
REMARK  143  A    between atoms: _349  and  _351
REMARK  144  A    between atoms: _351  and  _352
REMARK  145  A    between atoms: _351  and  _354
REMARK  146  A    between atoms: _354  and  _355
REMARK  147  A    between atoms: _355  and  _356
REMARK  148  A    between atoms: _358  and  _360
REMARK  149  A    between atoms: _360  and  _361
REMARK  150  A    between atoms: _360  and  _363
REMARK  151  A    between atoms: _366  and  _368
REMARK  152  A    between atoms: _368  and  _369
REMARK  153  A    between atoms: _368  and  _371
REMARK  154  A    between atoms: _371  and  _372
REMARK  155  A    between atoms: _375  and  _377
REMARK  156  A    between atoms: _377  and  _378
REMARK  157  A    between atoms: _377  and  _380
REMARK  158  A    between atoms: _380  and  _381
REMARK  159  A    between atoms: _384  and  _386
REMARK  160  A    between atoms: _386  and  _387
REMARK  161  A    between atoms: _386  and  _389
REMARK  162  A    between atoms: _389  and  _390
REMARK  163  A    between atoms: _392  and  _394
REMARK  164  A    between atoms: _394  and  _395
REMARK  165  A    between atoms: _394  and  _397
REMARK  166  A    between atoms: _397  and  _398
REMARK  167  A    between atoms: _398  and  _399
REMARK  168  A    between atoms: _402  and  _404
REMARK  169  A    between atoms: _404  and  _405
REMARK  170  A    between atoms: _404  and  _407
REMARK  171  A    between atoms: _407  and  _408
REMARK  172  A    between atoms: _414  and  _416
REMARK  173  A    between atoms: _416  and  _417
REMARK  174  A    between atoms: _416  and  _419
REMARK  175  A    between atoms: _419  and  _420
REMARK  176  A    between atoms: _420  and  _421
REMARK  177  A    between atoms: _423  and  _425
REMARK  178  A    between atoms: _425  and  _426
REMARK  179  A    between atoms: _425  and  _428
REMARK  180  A    between atoms: _428  and  _429
REMARK  181  A    between atoms: _432  and  _434
REMARK  182  A    between atoms: _434  and  _435
REMARK  183  A    between atoms: _434  and  _437
REMARK  184  A    between atoms: _437  and  _438
REMARK  185  A    between atoms: _441  and  _443
REMARK  186  A    between atoms: _443  and  _444
REMARK  187  A    between atoms: _443  and  _446
REMARK  188  A    between atoms: _446  and  _447
REMARK  189  A    between atoms: _450  and  _452
REMARK  190  A    between atoms: _452  and  _453
REMARK  191  A    between atoms: _452  and  _455
REMARK  192  A    between atoms: _455  and  _456
REMARK  193  A    between atoms: _462  and  _464
REMARK  194  A    between atoms: _464  and  _465
REMARK  195  A    between atoms: _464  and  _467
REMARK  196  A    between atoms: _467  and  _468
REMARK  197  A    between atoms: _474  and  _476
REMARK  198  A    between atoms: _476  and  _477
REMARK  199  A    between atoms: _476  and  _479
REMARK  200  A    between atoms: _479  and  _480
REMARK  201  A    between atoms: _480  and  _481
REMARK  202  A    between atoms: _483  and  _485
REMARK  203  A    between atoms: _485  and  _486
REMARK  204  A    between atoms: _485  and  _488
REMARK  205  A    between atoms: _488  and  _489
REMARK  206  A    between atoms: _489  and  _490
REMARK  207  A    between atoms: _490  and  _491
REMARK  208  A    between atoms: _491  and  _492
REMARK  209  A    between atoms: _496  and  _498
REMARK  210  A    between atoms: _498  and  _499
REMARK  211  A    between atoms: _498  and  _501
REMARK  212  A    between atoms: _501  and  _502
REMARK  213  A    between atoms: _508  and  _510
REMARK  214  A    between atoms: _510  and  _511
REMARK  215  A    between atoms: _510  and  _513
REMARK  216  A    between atoms: _513  and  _514
REMARK  217  A    between atoms: _517  and  _519
REMARK  218  A    between atoms: _519  and  _520
REMARK  219  A    between atoms: _519  and  _522
REMARK  220  A    between atoms: _522  and  _523
REMARK  221  A    between atoms: _526  and  _528
REMARK  222  A    between atoms: _528  and  _529
REMARK  223  A    between atoms: _528  and  _531
REMARK  224  A    between atoms: _534  and  _536
REMARK  225  A    between atoms: _536  and  _537
REMARK  226  A    between atoms: _536  and  _539
REMARK  227  A    between atoms: _539  and  _540
REMARK  228  A    between atoms: _545  and  _547
REMARK  229  A    between atoms: _547  and  _548
REMARK  230  A    between atoms: _547  and  _550
REMARK  231  A    between atoms: _553  and  _555
REMARK  232  A    between atoms: _555  and  _556
REMARK  233  A    between atoms: _555  and  _558
REMARK  234  A    between atoms: _558  and  _559
REMARK  235  A    between atoms: _562  and  _564
REMARK  236  A    between atoms: _564  and  _565
REMARK  237  A    between atoms: _564  and  _567
REMARK  238  A    between atoms: _567  and  _568
REMARK  239  A    between atoms: _571  and  _573
REMARK  240  A    between atoms: _573  and  _574
REMARK  241  A    between atoms: _573  and  _576
REMARK  242  A    between atoms: _576  and  _577
REMARK  243  A    between atoms: _580  and  _582
REMARK  244  A    between atoms: _582  and  _583
REMARK  245  A    between atoms: _582  and  _585
REMARK  246  A    between atoms: _585  and  _586
REMARK  247  A    between atoms: _586  and  _587
REMARK  248  A    between atoms: _589  and  _591
REMARK  249  A    between atoms: _591  and  _592
REMARK  250  A    between atoms: _591  and  _594
REMARK  251  A    between atoms: _594  and  _595
REMARK  252  A    between atoms: _597  and  _599
REMARK  253  A    between atoms: _599  and  _600
REMARK  254  A    between atoms: _599  and  _602
REMARK  255  A    between atoms: _602  and  _603
REMARK  256  A    between atoms: _606  and  _608
REMARK  257  A    between atoms: _608  and  _609
REMARK  258  A    between atoms: _608  and  _611
REMARK  259  A    between atoms: _611  and  _612
REMARK  260  A    between atoms: _617  and  _619
REMARK  261  A    between atoms: _619  and  _620
REMARK  262  A    between atoms: _619  and  _622
REMARK  263  A    between atoms: _622  and  _623
REMARK  264  A    between atoms: _626  and  _628
REMARK  265  A    between atoms: _628  and  _629
REMARK  266  A    between atoms: _628  and  _631
REMARK  267  A    between atoms: _631  and  _632
REMARK  268  A    between atoms: _632  and  _633
REMARK  269  A    between atoms: _638  and  _640
REMARK  270  A    between atoms: _640  and  _641
REMARK  271  A    between atoms: _640  and  _643
REMARK  272  A    between atoms: _643  and  _644
REMARK  273  A    between atoms: _647  and  _649
REMARK  274  A    between atoms: _649  and  _650
REMARK  275  A    between atoms: _649  and  _652
REMARK  276  A    between atoms: _652  and  _653
REMARK  277  A    between atoms: _658  and  _659
REMARK                            x       y       z     vdW  Elec       q    Type
REMARK                         _______ _______ _______ _____ _____    ______ ____
ROOT
ATOM      1  O   HOH     1       6.054  17.047  12.462  0.00  0.00    +0.000 OA
ENDROOT
TORSDOF 0
REMARK  Name = ../refined-set-2016/2i4z/2i4z_pocket.pdb
REMARK  277 active torsions:
REMARK  status: ('A' for Active; 'I' for Inactive)
REMARK    1  A    between atoms: _1  and  _3
REMARK    2  A    between atoms: _3  and  _4
REMARK    3  A    between atoms: _3  and  _6
REMARK    4  A    between atoms: _6  and  _7
REMARK    5  A    between atoms: _12  and  _13
REMARK    6  A    between atoms: _15  and  _17
REMARK    7  A    between atoms: _17  and  _18
REMARK    8  A    between atoms: _17  and  _20
REMARK    9  A    between atoms: _20  and  _21
REMARK   10  A    between atoms: _23  and  _25
REMARK   11  A    between atoms: _25  and  _26
REMARK   12  A    between atoms: _25  and  _28
REMARK   13  A    between atoms: _28  and  _29
REMARK   14  A    between atoms: _36  and  _37
REMARK   15  A    between atoms: _42  and  _44
REMARK   16  A    between atoms: _44  and  _45
REMARK   17  A    between atoms: _44  and  _47
REMARK   18  A    between atoms: _47  and  _48
REMARK   19  A    between atoms: _51  and  _53
REMARK   20  A    between atoms: _53  and  _54
REMARK   21  A    between atoms: _53  and  _56
REMARK   22  A    between atoms: _56  and  _57
REMARK   23  A    between atoms: _63  and  _65
REMARK   24  A    between atoms: _65  and  _66
REMARK   25  A    between atoms: _65  and  _68
REMARK   26  A    between atoms: _68  and  _69
REMARK   27  A    between atoms: _72  and  _74
REMARK   28  A    between atoms: _74  and  _75
REMARK   29  A    between atoms: _74  and  _77
REMARK   30  A    between atoms: _77  and  _78
REMARK   31  A    between atoms: _81  and  _83
REMARK   32  A    between atoms: _83  and  _84
REMARK   33  A    between atoms: _83  and  _86
REMARK   34  A    between atoms: _86  and  _87
REMARK   35  A    between atoms: _93  and  _95
REMARK   36  A    between atoms: _95  and  _96
REMARK   37  A    between atoms: _95  and  _98
REMARK   38  A    between atoms: _98  and  _99
REMARK   39  A    between atoms: _99  and  _100
REMARK   40  A    between atoms: _105  and  _107
REMARK   41  A    between atoms: _107  and  _108
REMARK   42  A    between atoms: _110  and  _112
REMARK   43  A    between atoms: _112  and  _113
REMARK   44  A    between atoms: _112  and  _115
REMARK   45  A    between atoms: _117  and  _119
REMARK   46  A    between atoms: _119  and  _120
REMARK   47  A    between atoms: _119  and  _122
REMARK   48  A    between atoms: _122  and  _123
REMARK   49  A    between atoms: _123  and  _124
REMARK   50  A    between atoms: _129  and  _131
REMARK   51  A    between atoms: _131  and  _132
REMARK   52  A    between atoms: _131  and  _134
REMARK   53  A    between atoms: _134  and  _135
REMARK   54  A    between atoms: _141  and  _143
REMARK   55  A    between atoms: _143  and  _144
REMARK   56  A    between atoms: _143  and  _146
REMARK   57  A    between atoms: _146  and  _147
REMARK   58  A    between atoms: _147  and  _148
REMARK   59  A    between atoms: _148  and  _149
REMARK   60  A    between atoms: _158  and  _160
REMARK   61  A    between atoms: _160  and  _161
REMARK   62  A    between atoms: _160  and  _163
REMARK   63  A    between atoms: _163  and  _164
REMARK   64  A    between atoms: _166  and  _168
REMARK   65  A    between atoms: _168  and  _169
REMARK   66  A    between atoms: _168  and  _171
REMARK   67  A    between atoms: _174  and  _176
REMARK   68  A    between atoms: _176  and  _177
REMARK   69  A    between atoms: _176  and  _179
REMARK   70  A    between atoms: _179  and  _180
REMARK   71  A    between atoms: _180  and  _181
REMARK   72  A    between atoms: _184  and  _186
REMARK   73  A    between atoms: _186  and  _187
REMARK   74  A    between atoms: _190  and  _192
REMARK   75  A    between atoms: _192  and  _193
REMARK   76  A    between atoms: _192  and  _195
REMARK   77  A    between atoms: _198  and  _200
REMARK   78  A    between atoms: _200  and  _201
REMARK   79  A    between atoms: _200  and  _203
REMARK   80  A    between atoms: _203  and  _204
REMARK   81  A    between atoms: _204  and  _205
REMARK   82  A    between atoms: _210  and  _212
REMARK   83  A    between atoms: _212  and  _213
REMARK   84  A    between atoms: _212  and  _215
REMARK   85  A    between atoms: _215  and  _216
REMARK   86  A    between atoms: _216  and  _217
REMARK   87  A    between atoms: _220  and  _222
REMARK   88  A    between atoms: _222  and  _223
REMARK   89  A    between atoms: _222  and  _225
REMARK   90  A    between atoms: _225  and  _226
REMARK   91  A    between atoms: _229  and  _231
REMARK   92  A    between atoms: _231  and  _232
REMARK   93  A    between atoms: _231  and  _234
REMARK   94  A    between atoms: _234  and  _235
REMARK   95  A    between atoms: _238  and  _240
REMARK   96  A    between atoms: _240  and  _241
REMARK   97  A    between atoms: _240  and  _243
REMARK   98  A    between atoms: _246  and  _248
REMARK   99  A    between atoms: _248  and  _249
REMARK  100  A    between atoms: _248  and  _251
REMARK  101  A    between atoms: _251  and  _252
REMARK  102  A    between atoms: _257  and  _259
REMARK  103  A    between atoms: _259  and  _260
REMARK  104  A    between atoms: _259  and  _262
REMARK  105  A    between atoms: _262  and  _263
REMARK  106  A    between atoms: _263  and  _264
REMARK  107  A    between atoms: _267  and  _269
REMARK  108  A    between atoms: _269  and  _270
REMARK  109  A    between atoms: _269  and  _272
REMARK  110  A    between atoms: _272  and  _273
REMARK  111  A    between atoms: _276  and  _278
REMARK  112  A    between atoms: _278  and  _279
REMARK  113  A    between atoms: _278  and  _281
REMARK  114  A    between atoms: _281  and  _282
REMARK  115  A    between atoms: _285  and  _287
REMARK  116  A    between atoms: _287  and  _288
REMARK  117  A    between atoms: _287  and  _290
REMARK  118  A    between atoms: _290  and  _291
REMARK  119  A    between atoms: _296  and  _297
REMARK  120  A    between atoms: _299  and  _301
REMARK  121  A    between atoms: _301  and  _302
REMARK  122  A    between atoms: _301  and  _304
REMARK  123  A    between atoms: _304  and  _305
REMARK  124  A    between atoms: _308  and  _310
REMARK  125  A    between atoms: _310  and  _311
REMARK  126  A    between atoms: _310  and  _313
REMARK  127  A    between atoms: _313  and  _314
REMARK  128  A    between atoms: _314  and  _315
REMARK  129  A    between atoms: _317  and  _319
REMARK  130  A    between atoms: _319  and  _320
REMARK  131  A    between atoms: _319  and  _322
REMARK  132  A    between atoms: _322  and  _323
REMARK  133  A    between atoms: _326  and  _328
REMARK  134  A    between atoms: _328  and  _329
REMARK  135  A    between atoms: _332  and  _334
REMARK  136  A    between atoms: _334  and  _335
REMARK  137  A    between atoms: _334  and  _337
REMARK  138  A    between atoms: _337  and  _338
REMARK  139  A    between atoms: _340  and  _342
REMARK  140  A    between atoms: _342  and  _343
REMARK  141  A    between atoms: _342  and  _345
REMARK  142  A    between atoms: _345  and  _346
REMARK  143  A    between atoms: _349  and  _351
REMARK  144  A    between atoms: _351  and  _352
REMARK  145  A    between atoms: _351  and  _354
REMARK  146  A    between atoms: _354  and  _355
REMARK  147  A    between atoms: _355  and  _356
REMARK  148  A    between atoms: _358  and  _360
REMARK  149  A    between atoms: _360  and  _361
REMARK  150  A    between atoms: _360  and  _363
REMARK  151  A    between atoms: _366  and  _368
REMARK  152  A    between atoms: _368  and  _369
REMARK  153  A    between atoms: _368  and  _371
REMARK  154  A    between atoms: _371  and  _372
REMARK  155  A    between atoms: _375  and  _377
REMARK  156  A    between atoms: _377  and  _378
REMARK  157  A    between atoms: _377  and  _380
REMARK  158  A    between atoms: _380  and  _381
REMARK  159  A    between atoms: _384  and  _386
REMARK  160  A    between atoms: _386  and  _387
REMARK  161  A    between atoms: _386  and  _389
REMARK  162  A    between atoms: _389  and  _390
REMARK  163  A    between atoms: _392  and  _394
REMARK  164  A    between atoms: _394  and  _395
REMARK  165  A    between atoms: _394  and  _397
REMARK  166  A    between atoms: _397  and  _398
REMARK  167  A    between atoms: _398  and  _399
REMARK  168  A    between atoms: _402  and  _404
REMARK  169  A    between atoms: _404  and  _405
REMARK  170  A    between atoms: _404  and  _407
REMARK  171  A    between atoms: _407  and  _408
REMARK  172  A    between atoms: _414  and  _416
REMARK  173  A    between atoms: _416  and  _417
REMARK  174  A    between atoms: _416  and  _419
REMARK  175  A    between atoms: _419  and  _420
REMARK  176  A    between atoms: _420  and  _421
REMARK  177  A    between atoms: _423  and  _425
REMARK  178  A    between atoms: _425  and  _426
REMARK  179  A    between atoms: _425  and  _428
REMARK  180  A    between atoms: _428  and  _429
REMARK  181  A    between atoms: _432  and  _434
REMARK  182  A    between atoms: _434  and  _435
REMARK  183  A    between atoms: _434  and  _437
REMARK  184  A    between atoms: _437  and  _438
REMARK  185  A    between atoms: _441  and  _443
REMARK  186  A    between atoms: _443  and  _444
REMARK  187  A    between atoms: _443  and  _446
REMARK  188  A    between atoms: _446  and  _447
REMARK  189  A    between atoms: _450  and  _452
REMARK  190  A    between atoms: _452  and  _453
REMARK  191  A    between atoms: _452  and  _455
REMARK  192  A    between atoms: _455  and  _456
REMARK  193  A    between atoms: _462  and  _464
REMARK  194  A    between atoms: _464  and  _465
REMARK  195  A    between atoms: _464  and  _467
REMARK  196  A    between atoms: _467  and  _468
REMARK  197  A    between atoms: _474  and  _476
REMARK  198  A    between atoms: _476  and  _477
REMARK  199  A    between atoms: _476  and  _479
REMARK  200  A    between atoms: _479  and  _480
REMARK  201  A    between atoms: _480  and  _481
REMARK  202  A    between atoms: _483  and  _485
REMARK  203  A    between atoms: _485  and  _486
REMARK  204  A    between atoms: _485  and  _488
REMARK  205  A    between atoms: _488  and  _489
REMARK  206  A    between atoms: _489  and  _490
REMARK  207  A    between atoms: _490  and  _491
REMARK  208  A    between atoms: _491  and  _492
REMARK  209  A    between atoms: _496  and  _498
REMARK  210  A    between atoms: _498  and  _499
REMARK  211  A    between atoms: _498  and  _501
REMARK  212  A    between atoms: _501  and  _502
REMARK  213  A    between atoms: _508  and  _510
REMARK  214  A    between atoms: _510  and  _511
REMARK  215  A    between atoms: _510  and  _513
REMARK  216  A    between atoms: _513  and  _514
REMARK  217  A    between atoms: _517  and  _519
REMARK  218  A    between atoms: _519  and  _520
REMARK  219  A    between atoms: _519  and  _522
REMARK  220  A    between atoms: _522  and  _523
REMARK  221  A    between atoms: _526  and  _528
REMARK  222  A    between atoms: _528  and  _529
REMARK  223  A    between atoms: _528  and  _531
REMARK  224  A    between atoms: _534  and  _536
REMARK  225  A    between atoms: _536  and  _537
REMARK  226  A    between atoms: _536  and  _539
REMARK  227  A    between atoms: _539  and  _540
REMARK  228  A    between atoms: _545  and  _547
REMARK  229  A    between atoms: _547  and  _548
REMARK  230  A    between atoms: _547  and  _550
REMARK  231  A    between atoms: _553  and  _555
REMARK  232  A    between atoms: _555  and  _556
REMARK  233  A    between atoms: _555  and  _558
REMARK  234  A    between atoms: _558  and  _559
REMARK  235  A    between atoms: _562  and  _564
REMARK  236  A    between atoms: _564  and  _565
REMARK  237  A    between atoms: _564  and  _567
REMARK  238  A    between atoms: _567  and  _568
REMARK  239  A    between atoms: _571  and  _573
REMARK  240  A    between atoms: _573  and  _574
REMARK  241  A    between atoms: _573  and  _576
REMARK  242  A    between atoms: _576  and  _577
REMARK  243  A    between atoms: _580  and  _582
REMARK  244  A    between atoms: _582  and  _583
REMARK  245  A    between atoms: _582  and  _585
REMARK  246  A    between atoms: _585  and  _586
REMARK  247  A    between atoms: _586  and  _587
REMARK  248  A    between atoms: _589  and  _591
REMARK  249  A    between atoms: _591  and  _592
REMARK  250  A    between atoms: _591  and  _594
REMARK  251  A    between atoms: _594  and  _595
REMARK  252  A    between atoms: _597  and  _599
REMARK  253  A    between atoms: _599  and  _600
REMARK  254  A    between atoms: _599  and  _602
REMARK  255  A    between atoms: _602  and  _603
REMARK  256  A    between atoms: _606  and  _608
REMARK  257  A    between atoms: _608  and  _609
REMARK  258  A    between atoms: _608  and  _611
REMARK  259  A    between atoms: _611  and  _612
REMARK  260  A    between atoms: _617  and  _619
REMARK  261  A    between atoms: _619  and  _620
REMARK  262  A    between atoms: _619  and  _622
REMARK  263  A    between atoms: _622  and  _623
REMARK  264  A    between atoms: _626  and  _628
REMARK  265  A    between atoms: _628  and  _629
REMARK  266  A    between atoms: _628  and  _631
REMARK  267  A    between atoms: _631  and  _632
REMARK  268  A    between atoms: _632  and  _633
REMARK  269  A    between atoms: _638  and  _640
REMARK  270  A    between atoms: _640  and  _641
REMARK  271  A    between atoms: _640  and  _643
REMARK  272  A    between atoms: _643  and  _644
REMARK  273  A    between atoms: _647  and  _649
REMARK  274  A    between atoms: _649  and  _650
REMARK  275  A    between atoms: _649  and  _652
REMARK  276  A    between atoms: _652  and  _653
REMARK  277  A    between atoms: _658  and  _659
REMARK                            x       y       z     vdW  Elec       q    Type
REMARK                         _______ _______ _______ _____ _____    ______ ____
ROOT
ATOM      1  O   HOH     1       6.995  13.613  12.648  0.00  0.00    +0.000 OA
ENDROOT
TORSDOF 0
REMARK  Name = ../refined-set-2016/2i4z/2i4z_pocket.pdb
REMARK  277 active torsions:
REMARK  status: ('A' for Active; 'I' for Inactive)
REMARK    1  A    between atoms: _1  and  _3
REMARK    2  A    between atoms: _3  and  _4
REMARK    3  A    between atoms: _3  and  _6
REMARK    4  A    between atoms: _6  and  _7
REMARK    5  A    between atoms: _12  and  _13
REMARK    6  A    between atoms: _15  and  _17
REMARK    7  A    between atoms: _17  and  _18
REMARK    8  A    between atoms: _17  and  _20
REMARK    9  A    between atoms: _20  and  _21
REMARK   10  A    between atoms: _23  and  _25
REMARK   11  A    between atoms: _25  and  _26
REMARK   12  A    between atoms: _25  and  _28
REMARK   13  A    between atoms: _28  and  _29
REMARK   14  A    between atoms: _36  and  _37
REMARK   15  A    between atoms: _42  and  _44
REMARK   16  A    between atoms: _44  and  _45
REMARK   17  A    between atoms: _44  and  _47
REMARK   18  A    between atoms: _47  and  _48
REMARK   19  A    between atoms: _51  and  _53
REMARK   20  A    between atoms: _53  and  _54
REMARK   21  A    between atoms: _53  and  _56
REMARK   22  A    between atoms: _56  and  _57
REMARK   23  A    between atoms: _63  and  _65
REMARK   24  A    between atoms: _65  and  _66
REMARK   25  A    between atoms: _65  and  _68
REMARK   26  A    between atoms: _68  and  _69
REMARK   27  A    between atoms: _72  and  _74
REMARK   28  A    between atoms: _74  and  _75
REMARK   29  A    between atoms: _74  and  _77
REMARK   30  A    between atoms: _77  and  _78
REMARK   31  A    between atoms: _81  and  _83
REMARK   32  A    between atoms: _83  and  _84
REMARK   33  A    between atoms: _83  and  _86
REMARK   34  A    between atoms: _86  and  _87
REMARK   35  A    between atoms: _93  and  _95
REMARK   36  A    between atoms: _95  and  _96
REMARK   37  A    between atoms: _95  and  _98
REMARK   38  A    between atoms: _98  and  _99
REMARK   39  A    between atoms: _99  and  _100
REMARK   40  A    between atoms: _105  and  _107
REMARK   41  A    between atoms: _107  and  _108
REMARK   42  A    between atoms: _110  and  _112
REMARK   43  A    between atoms: _112  and  _113
REMARK   44  A    between atoms: _112  and  _115
REMARK   45  A    between atoms: _117  and  _119
REMARK   46  A    between atoms: _119  and  _120
REMARK   47  A    between atoms: _119  and  _122
REMARK   48  A    between atoms: _122  and  _123
REMARK   49  A    between atoms: _123  and  _124
REMARK   50  A    between atoms: _129  and  _131
REMARK   51  A    between atoms: _131  and  _132
REMARK   52  A    between atoms: _131  and  _134
REMARK   53  A    between atoms: _134  and  _135
REMARK   54  A    between atoms: _141  and  _143
REMARK   55  A    between atoms: _143  and  _144
REMARK   56  A    between atoms: _143  and  _146
REMARK   57  A    between atoms: _146  and  _147
REMARK   58  A    between atoms: _147  and  _148
REMARK   59  A    between atoms: _148  and  _149
REMARK   60  A    between atoms: _158  and  _160
REMARK   61  A    between atoms: _160  and  _161
REMARK   62  A    between atoms: _160  and  _163
REMARK   63  A    between atoms: _163  and  _164
REMARK   64  A    between atoms: _166  and  _168
REMARK   65  A    between atoms: _168  and  _169
REMARK   66  A    between atoms: _168  and  _171
REMARK   67  A    between atoms: _174  and  _176
REMARK   68  A    between atoms: _176  and  _177
REMARK   69  A    between atoms: _176  and  _179
REMARK   70  A    between atoms: _179  and  _180
REMARK   71  A    between atoms: _180  and  _181
REMARK   72  A    between atoms: _184  and  _186
REMARK   73  A    between atoms: _186  and  _187
REMARK   74  A    between atoms: _190  and  _192
REMARK   75  A    between atoms: _192  and  _193
REMARK   76  A    between atoms: _192  and  _195
REMARK   77  A    between atoms: _198  and  _200
REMARK   78  A    between atoms: _200  and  _201
REMARK   79  A    between atoms: _200  and  _203
REMARK   80  A    between atoms: _203  and  _204
REMARK   81  A    between atoms: _204  and  _205
REMARK   82  A    between atoms: _210  and  _212
REMARK   83  A    between atoms: _212  and  _213
REMARK   84  A    between atoms: _212  and  _215
REMARK   85  A    between atoms: _215  and  _216
REMARK   86  A    between atoms: _216  and  _217
REMARK   87  A    between atoms: _220  and  _222
REMARK   88  A    between atoms: _222  and  _223
REMARK   89  A    between atoms: _222  and  _225
REMARK   90  A    between atoms: _225  and  _226
REMARK   91  A    between atoms: _229  and  _231
REMARK   92  A    between atoms: _231  and  _232
REMARK   93  A    between atoms: _231  and  _234
REMARK   94  A    between atoms: _234  and  _235
REMARK   95  A    between atoms: _238  and  _240
REMARK   96  A    between atoms: _240  and  _241
REMARK   97  A    between atoms: _240  and  _243
REMARK   98  A    between atoms: _246  and  _248
REMARK   99  A    between atoms: _248  and  _249
REMARK  100  A    between atoms: _248  and  _251
REMARK  101  A    between atoms: _251  and  _252
REMARK  102  A    between atoms: _257  and  _259
REMARK  103  A    between atoms: _259  and  _260
REMARK  104  A    between atoms: _259  and  _262
REMARK  105  A    between atoms: _262  and  _263
REMARK  106  A    between atoms: _263  and  _264
REMARK  107  A    between atoms: _267  and  _269
REMARK  108  A    between atoms: _269  and  _270
REMARK  109  A    between atoms: _269  and  _272
REMARK  110  A    between atoms: _272  and  _273
REMARK  111  A    between atoms: _276  and  _278
REMARK  112  A    between atoms: _278  and  _279
REMARK  113  A    between atoms: _278  and  _281
REMARK  114  A    between atoms: _281  and  _282
REMARK  115  A    between atoms: _285  and  _287
REMARK  116  A    between atoms: _287  and  _288
REMARK  117  A    between atoms: _287  and  _290
REMARK  118  A    between atoms: _290  and  _291
REMARK  119  A    between atoms: _296  and  _297
REMARK  120  A    between atoms: _299  and  _301
REMARK  121  A    between atoms: _301  and  _302
REMARK  122  A    between atoms: _301  and  _304
REMARK  123  A    between atoms: _304  and  _305
REMARK  124  A    between atoms: _308  and  _310
REMARK  125  A    between atoms: _310  and  _311
REMARK  126  A    between atoms: _310  and  _313
REMARK  127  A    between atoms: _313  and  _314
REMARK  128  A    between atoms: _314  and  _315
REMARK  129  A    between atoms: _317  and  _319
REMARK  130  A    between atoms: _319  and  _320
REMARK  131  A    between atoms: _319  and  _322
REMARK  132  A    between atoms: _322  and  _323
REMARK  133  A    between atoms: _326  and  _328
REMARK  134  A    between atoms: _328  and  _329
REMARK  135  A    between atoms: _332  and  _334
REMARK  136  A    between atoms: _334  and  _335
REMARK  137  A    between atoms: _334  and  _337
REMARK  138  A    between atoms: _337  and  _338
REMARK  139  A    between atoms: _340  and  _342
REMARK  140  A    between atoms: _342  and  _343
REMARK  141  A    between atoms: _342  and  _345
REMARK  142  A    between atoms: _345  and  _346
REMARK  143  A    between atoms: _349  and  _351
REMARK  144  A    between atoms: _351  and  _352
REMARK  145  A    between atoms: _351  and  _354
REMARK  146  A    between atoms: _354  and  _355
REMARK  147  A    between atoms: _355  and  _356
REMARK  148  A    between atoms: _358  and  _360
REMARK  149  A    between atoms: _360  and  _361
REMARK  150  A    between atoms: _360  and  _363
REMARK  151  A    between atoms: _366  and  _368
REMARK  152  A    between atoms: _368  and  _369
REMARK  153  A    between atoms: _368  and  _371
REMARK  154  A    between atoms: _371  and  _372
REMARK  155  A    between atoms: _375  and  _377
REMARK  156  A    between atoms: _377  and  _378
REMARK  157  A    between atoms: _377  and  _380
REMARK  158  A    between atoms: _380  and  _381
REMARK  159  A    between atoms: _384  and  _386
REMARK  160  A    between atoms: _386  and  _387
REMARK  161  A    between atoms: _386  and  _389
REMARK  162  A    between atoms: _389  and  _390
REMARK  163  A    between atoms: _392  and  _394
REMARK  164  A    between atoms: _394  and  _395
REMARK  165  A    between atoms: _394  and  _397
REMARK  166  A    between atoms: _397  and  _398
REMARK  167  A    between atoms: _398  and  _399
REMARK  168  A    between atoms: _402  and  _404
REMARK  169  A    between atoms: _404  and  _405
REMARK  170  A    between atoms: _404  and  _407
REMARK  171  A    between atoms: _407  and  _408
REMARK  172  A    between atoms: _414  and  _416
REMARK  173  A    between atoms: _416  and  _417
REMARK  174  A    between atoms: _416  and  _419
REMARK  175  A    between atoms: _419  and  _420
REMARK  176  A    between atoms: _420  and  _421
REMARK  177  A    between atoms: _423  and  _425
REMARK  178  A    between atoms: _425  and  _426
REMARK  179  A    between atoms: _425  and  _428
REMARK  180  A    between atoms: _428  and  _429
REMARK  181  A    between atoms: _432  and  _434
REMARK  182  A    between atoms: _434  and  _435
REMARK  183  A    between atoms: _434  and  _437
REMARK  184  A    between atoms: _437  and  _438
REMARK  185  A    between atoms: _441  and  _443
REMARK  186  A    between atoms: _443  and  _444
REMARK  187  A    between atoms: _443  and  _446
REMARK  188  A    between atoms: _446  and  _447
REMARK  189  A    between atoms: _450  and  _452
REMARK  190  A    between atoms: _452  and  _453
REMARK  191  A    between atoms: _452  and  _455
REMARK  192  A    between atoms: _455  and  _456
REMARK  193  A    between atoms: _462  and  _464
REMARK  194  A    between atoms: _464  and  _465
REMARK  195  A    between atoms: _464  and  _467
REMARK  196  A    between atoms: _467  and  _468
REMARK  197  A    between atoms: _474  and  _476
REMARK  198  A    between atoms: _476  and  _477
REMARK  199  A    between atoms: _476  and  _479
REMARK  200  A    between atoms: _479  and  _480
REMARK  201  A    between atoms: _480  and  _481
REMARK  202  A    between atoms: _483  and  _485
REMARK  203  A    between atoms: _485  and  _486
REMARK  204  A    between atoms: _485  and  _488
REMARK  205  A    between atoms: _488  and  _489
REMARK  206  A    between atoms: _489  and  _490
REMARK  207  A    between atoms: _490  and  _491
REMARK  208  A    between atoms: _491  and  _492
REMARK  209  A    between atoms: _496  and  _498
REMARK  210  A    between atoms: _498  and  _499
REMARK  211  A    between atoms: _498  and  _501
REMARK  212  A    between atoms: _501  and  _502
REMARK  213  A    between atoms: _508  and  _510
REMARK  214  A    between atoms: _510  and  _511
REMARK  215  A    between atoms: _510  and  _513
REMARK  216  A    between atoms: _513  and  _514
REMARK  217  A    between atoms: _517  and  _519
REMARK  218  A    between atoms: _519  and  _520
REMARK  219  A    between atoms: _519  and  _522
REMARK  220  A    between atoms: _522  and  _523
REMARK  221  A    between atoms: _526  and  _528
REMARK  222  A    between atoms: _528  and  _529
REMARK  223  A    between atoms: _528  and  _531
REMARK  224  A    between atoms: _534  and  _536
REMARK  225  A    between atoms: _536  and  _537
REMARK  226  A    between atoms: _536  and  _539
REMARK  227  A    between atoms: _539  and  _540
REMARK  228  A    between atoms: _545  and  _547
REMARK  229  A    between atoms: _547  and  _548
REMARK  230  A    between atoms: _547  and  _550
REMARK  231  A    between atoms: _553  and  _555
REMARK  232  A    between atoms: _555  and  _556
REMARK  233  A    between atoms: _555  and  _558
REMARK  234  A    between atoms: _558  and  _559
REMARK  235  A    between atoms: _562  and  _564
REMARK  236  A    between atoms: _564  and  _565
REMARK  237  A    between atoms: _564  and  _567
REMARK  238  A    between atoms: _567  and  _568
REMARK  239  A    between atoms: _571  and  _573
REMARK  240  A    between atoms: _573  and  _574
REMARK  241  A    between atoms: _573  and  _576
REMARK  242  A    between atoms: _576  and  _577
REMARK  243  A    between atoms: _580  and  _582
REMARK  244  A    between atoms: _582  and  _583
REMARK  245  A    between atoms: _582  and  _585
REMARK  246  A    between atoms: _585  and  _586
REMARK  247  A    between atoms: _586  and  _587
REMARK  248  A    between atoms: _589  and  _591
REMARK  249  A    between atoms: _591  and  _592
REMARK  250  A    between atoms: _591  and  _594
REMARK  251  A    between atoms: _594  and  _595
REMARK  252  A    between atoms: _597  and  _599
REMARK  253  A    between atoms: _599  and  _600
REMARK  254  A    between atoms: _599  and  _602
REMARK  255  A    between atoms: _602  and  _603
REMARK  256  A    between atoms: _606  and  _608
REMARK  257  A    between atoms: _608  and  _609
REMARK  258  A    between atoms: _608  and  _611
REMARK  259  A    between atoms: _611  and  _612
REMARK  260  A    between atoms: _617  and  _619
REMARK  261  A    between atoms: _619  and  _620
REMARK  262  A    between atoms: _619  and  _622
REMARK  263  A    between atoms: _622  and  _623
REMARK  264  A    between atoms: _626  and  _628
REMARK  265  A    between atoms: _628  and  _629
REMARK  266  A    between atoms: _628  and  _631
REMARK  267  A    between atoms: _631  and  _632
REMARK  268  A    between atoms: _632  and  _633
REMARK  269  A    between atoms: _638  and  _640
REMARK  270  A    between atoms: _640  and  _641
REMARK  271  A    between atoms: _640  and  _643
REMARK  272  A    between atoms: _643  and  _644
REMARK  273  A    between atoms: _647  and  _649
REMARK  274  A    between atoms: _649  and  _650
REMARK  275  A    between atoms: _649  and  _652
REMARK  276  A    between atoms: _652  and  _653
REMARK  277  A    between atoms: _658  and  _659
REMARK                            x       y       z     vdW  Elec       q    Type
REMARK                         _______ _______ _______ _____ _____    ______ ____
ROOT
ATOM      1  O   HOH     1      12.825   5.880  21.257  0.00  0.00    +0.000 OA
ENDROOT
TORSDOF 0
REMARK  Name = ../refined-set-2016/2i4z/2i4z_pocket.pdb
REMARK  277 active torsions:
REMARK  status: ('A' for Active; 'I' for Inactive)
REMARK    1  A    between atoms: _1  and  _3
REMARK    2  A    between atoms: _3  and  _4
REMARK    3  A    between atoms: _3  and  _6
REMARK    4  A    between atoms: _6  and  _7
REMARK    5  A    between atoms: _12  and  _13
REMARK    6  A    between atoms: _15  and  _17
REMARK    7  A    between atoms: _17  and  _18
REMARK    8  A    between atoms: _17  and  _20
REMARK    9  A    between atoms: _20  and  _21
REMARK   10  A    between atoms: _23  and  _25
REMARK   11  A    between atoms: _25  and  _26
REMARK   12  A    between atoms: _25  and  _28
REMARK   13  A    between atoms: _28  and  _29
REMARK   14  A    between atoms: _36  and  _37
REMARK   15  A    between atoms: _42  and  _44
REMARK   16  A    between atoms: _44  and  _45
REMARK   17  A    between atoms: _44  and  _47
REMARK   18  A    between atoms: _47  and  _48
REMARK   19  A    between atoms: _51  and  _53
REMARK   20  A    between atoms: _53  and  _54
REMARK   21  A    between atoms: _53  and  _56
REMARK   22  A    between atoms: _56  and  _57
REMARK   23  A    between atoms: _63  and  _65
REMARK   24  A    between atoms: _65  and  _66
REMARK   25  A    between atoms: _65  and  _68
REMARK   26  A    between atoms: _68  and  _69
REMARK   27  A    between atoms: _72  and  _74
REMARK   28  A    between atoms: _74  and  _75
REMARK   29  A    between atoms: _74  and  _77
REMARK   30  A    between atoms: _77  and  _78
REMARK   31  A    between atoms: _81  and  _83
REMARK   32  A    between atoms: _83  and  _84
REMARK   33  A    between atoms: _83  and  _86
REMARK   34  A    between atoms: _86  and  _87
REMARK   35  A    between atoms: _93  and  _95
REMARK   36  A    between atoms: _95  and  _96
REMARK   37  A    between atoms: _95  and  _98
REMARK   38  A    between atoms: _98  and  _99
REMARK   39  A    between atoms: _99  and  _100
REMARK   40  A    between atoms: _105  and  _107
REMARK   41  A    between atoms: _107  and  _108
REMARK   42  A    between atoms: _110  and  _112
REMARK   43  A    between atoms: _112  and  _113
REMARK   44  A    between atoms: _112  and  _115
REMARK   45  A    between atoms: _117  and  _119
REMARK   46  A    between atoms: _119  and  _120
REMARK   47  A    between atoms: _119  and  _122
REMARK   48  A    between atoms: _122  and  _123
REMARK   49  A    between atoms: _123  and  _124
REMARK   50  A    between atoms: _129  and  _131
REMARK   51  A    between atoms: _131  and  _132
REMARK   52  A    between atoms: _131  and  _134
REMARK   53  A    between atoms: _134  and  _135
REMARK   54  A    between atoms: _141  and  _143
REMARK   55  A    between atoms: _143  and  _144
REMARK   56  A    between atoms: _143  and  _146
REMARK   57  A    between atoms: _146  and  _147
REMARK   58  A    between atoms: _147  and  _148
REMARK   59  A    between atoms: _148  and  _149
REMARK   60  A    between atoms: _158  and  _160
REMARK   61  A    between atoms: _160  and  _161
REMARK   62  A    between atoms: _160  and  _163
REMARK   63  A    between atoms: _163  and  _164
REMARK   64  A    between atoms: _166  and  _168
REMARK   65  A    between atoms: _168  and  _169
REMARK   66  A    between atoms: _168  and  _171
REMARK   67  A    between atoms: _174  and  _176
REMARK   68  A    between atoms: _176  and  _177
REMARK   69  A    between atoms: _176  and  _179
REMARK   70  A    between atoms: _179  and  _180
REMARK   71  A    between atoms: _180  and  _181
REMARK   72  A    between atoms: _184  and  _186
REMARK   73  A    between atoms: _186  and  _187
REMARK   74  A    between atoms: _190  and  _192
REMARK   75  A    between atoms: _192  and  _193
REMARK   76  A    between atoms: _192  and  _195
REMARK   77  A    between atoms: _198  and  _200
REMARK   78  A    between atoms: _200  and  _201
REMARK   79  A    between atoms: _200  and  _203
REMARK   80  A    between atoms: _203  and  _204
REMARK   81  A    between atoms: _204  and  _205
REMARK   82  A    between atoms: _210  and  _212
REMARK   83  A    between atoms: _212  and  _213
REMARK   84  A    between atoms: _212  and  _215
REMARK   85  A    between atoms: _215  and  _216
REMARK   86  A    between atoms: _216  and  _217
REMARK   87  A    between atoms: _220  and  _222
REMARK   88  A    between atoms: _222  and  _223
REMARK   89  A    between atoms: _222  and  _225
REMARK   90  A    between atoms: _225  and  _226
REMARK   91  A    between atoms: _229  and  _231
REMARK   92  A    between atoms: _231  and  _232
REMARK   93  A    between atoms: _231  and  _234
REMARK   94  A    between atoms: _234  and  _235
REMARK   95  A    between atoms: _238  and  _240
REMARK   96  A    between atoms: _240  and  _241
REMARK   97  A    between atoms: _240  and  _243
REMARK   98  A    between atoms: _246  and  _248
REMARK   99  A    between atoms: _248  and  _249
REMARK  100  A    between atoms: _248  and  _251
REMARK  101  A    between atoms: _251  and  _252
REMARK  102  A    between atoms: _257  and  _259
REMARK  103  A    between atoms: _259  and  _260
REMARK  104  A    between atoms: _259  and  _262
REMARK  105  A    between atoms: _262  and  _263
REMARK  106  A    between atoms: _263  and  _264
REMARK  107  A    between atoms: _267  and  _269
REMARK  108  A    between atoms: _269  and  _270
REMARK  109  A    between atoms: _269  and  _272
REMARK  110  A    between atoms: _272  and  _273
REMARK  111  A    between atoms: _276  and  _278
REMARK  112  A    between atoms: _278  and  _279
REMARK  113  A    between atoms: _278  and  _281
REMARK  114  A    between atoms: _281  and  _282
REMARK  115  A    between atoms: _285  and  _287
REMARK  116  A    between atoms: _287  and  _288
REMARK  117  A    between atoms: _287  and  _290
REMARK  118  A    between atoms: _290  and  _291
REMARK  119  A    between atoms: _296  and  _297
REMARK  120  A    between atoms: _299  and  _301
REMARK  121  A    between atoms: _301  and  _302
REMARK  122  A    between atoms: _301  and  _304
REMARK  123  A    between atoms: _304  and  _305
REMARK  124  A    between atoms: _308  and  _310
REMARK  125  A    between atoms: _310  and  _311
REMARK  126  A    between atoms: _310  and  _313
REMARK  127  A    between atoms: _313  and  _314
REMARK  128  A    between atoms: _314  and  _315
REMARK  129  A    between atoms: _317  and  _319
REMARK  130  A    between atoms: _319  and  _320
REMARK  131  A    between atoms: _319  and  _322
REMARK  132  A    between atoms: _322  and  _323
REMARK  133  A    between atoms: _326  and  _328
REMARK  134  A    between atoms: _328  and  _329
REMARK  135  A    between atoms: _332  and  _334
REMARK  136  A    between atoms: _334  and  _335
REMARK  137  A    between atoms: _334  and  _337
REMARK  138  A    between atoms: _337  and  _338
REMARK  139  A    between atoms: _340  and  _342
REMARK  140  A    between atoms: _342  and  _343
REMARK  141  A    between atoms: _342  and  _345
REMARK  142  A    between atoms: _345  and  _346
REMARK  143  A    between atoms: _349  and  _351
REMARK  144  A    between atoms: _351  and  _352
REMARK  145  A    between atoms: _351  and  _354
REMARK  146  A    between atoms: _354  and  _355
REMARK  147  A    between atoms: _355  and  _356
REMARK  148  A    between atoms: _358  and  _360
REMARK  149  A    between atoms: _360  and  _361
REMARK  150  A    between atoms: _360  and  _363
REMARK  151  A    between atoms: _366  and  _368
REMARK  152  A    between atoms: _368  and  _369
REMARK  153  A    between atoms: _368  and  _371
REMARK  154  A    between atoms: _371  and  _372
REMARK  155  A    between atoms: _375  and  _377
REMARK  156  A    between atoms: _377  and  _378
REMARK  157  A    between atoms: _377  and  _380
REMARK  158  A    between atoms: _380  and  _381
REMARK  159  A    between atoms: _384  and  _386
REMARK  160  A    between atoms: _386  and  _387
REMARK  161  A    between atoms: _386  and  _389
REMARK  162  A    between atoms: _389  and  _390
REMARK  163  A    between atoms: _392  and  _394
REMARK  164  A    between atoms: _394  and  _395
REMARK  165  A    between atoms: _394  and  _397
REMARK  166  A    between atoms: _397  and  _398
REMARK  167  A    between atoms: _398  and  _399
REMARK  168  A    between atoms: _402  and  _404
REMARK  169  A    between atoms: _404  and  _405
REMARK  170  A    between atoms: _404  and  _407
REMARK  171  A    between atoms: _407  and  _408
REMARK  172  A    between atoms: _414  and  _416
REMARK  173  A    between atoms: _416  and  _417
REMARK  174  A    between atoms: _416  and  _419
REMARK  175  A    between atoms: _419  and  _420
REMARK  176  A    between atoms: _420  and  _421
REMARK  177  A    between atoms: _423  and  _425
REMARK  178  A    between atoms: _425  and  _426
REMARK  179  A    between atoms: _425  and  _428
REMARK  180  A    between atoms: _428  and  _429
REMARK  181  A    between atoms: _432  and  _434
REMARK  182  A    between atoms: _434  and  _435
REMARK  183  A    between atoms: _434  and  _437
REMARK  184  A    between atoms: _437  and  _438
REMARK  185  A    between atoms: _441  and  _443
REMARK  186  A    between atoms: _443  and  _444
REMARK  187  A    between atoms: _443  and  _446
REMARK  188  A    between atoms: _446  and  _447
REMARK  189  A    between atoms: _450  and  _452
REMARK  190  A    between atoms: _452  and  _453
REMARK  191  A    between atoms: _452  and  _455
REMARK  192  A    between atoms: _455  and  _456
REMARK  193  A    between atoms: _462  and  _464
REMARK  194  A    between atoms: _464  and  _465
REMARK  195  A    between atoms: _464  and  _467
REMARK  196  A    between atoms: _467  and  _468
REMARK  197  A    between atoms: _474  and  _476
REMARK  198  A    between atoms: _476  and  _477
REMARK  199  A    between atoms: _476  and  _479
REMARK  200  A    between atoms: _479  and  _480
REMARK  201  A    between atoms: _480  and  _481
REMARK  202  A    between atoms: _483  and  _485
REMARK  203  A    between atoms: _485  and  _486
REMARK  204  A    between atoms: _485  and  _488
REMARK  205  A    between atoms: _488  and  _489
REMARK  206  A    between atoms: _489  and  _490
REMARK  207  A    between atoms: _490  and  _491
REMARK  208  A    between atoms: _491  and  _492
REMARK  209  A    between atoms: _496  and  _498
REMARK  210  A    between atoms: _498  and  _499
REMARK  211  A    between atoms: _498  and  _501
REMARK  212  A    between atoms: _501  and  _502
REMARK  213  A    between atoms: _508  and  _510
REMARK  214  A    between atoms: _510  and  _511
REMARK  215  A    between atoms: _510  and  _513
REMARK  216  A    between atoms: _513  and  _514
REMARK  217  A    between atoms: _517  and  _519
REMARK  218  A    between atoms: _519  and  _520
REMARK  219  A    between atoms: _519  and  _522
REMARK  220  A    between atoms: _522  and  _523
REMARK  221  A    between atoms: _526  and  _528
REMARK  222  A    between atoms: _528  and  _529
REMARK  223  A    between atoms: _528  and  _531
REMARK  224  A    between atoms: _534  and  _536
REMARK  225  A    between atoms: _536  and  _537
REMARK  226  A    between atoms: _536  and  _539
REMARK  227  A    between atoms: _539  and  _540
REMARK  228  A    between atoms: _545  and  _547
REMARK  229  A    between atoms: _547  and  _548
REMARK  230  A    between atoms: _547  and  _550
REMARK  231  A    between atoms: _553  and  _555
REMARK  232  A    between atoms: _555  and  _556
REMARK  233  A    between atoms: _555  and  _558
REMARK  234  A    between atoms: _558  and  _559
REMARK  235  A    between atoms: _562  and  _564
REMARK  236  A    between atoms: _564  and  _565
REMARK  237  A    between atoms: _564  and  _567
REMARK  238  A    between atoms: _567  and  _568
REMARK  239  A    between atoms: _571  and  _573
REMARK  240  A    between atoms: _573  and  _574
REMARK  241  A    between atoms: _573  and  _576
REMARK  242  A    between atoms: _576  and  _577
REMARK  243  A    between atoms: _580  and  _582
REMARK  244  A    between atoms: _582  and  _583
REMARK  245  A    between atoms: _582  and  _585
REMARK  246  A    between atoms: _585  and  _586
REMARK  247  A    between atoms: _586  and  _587
REMARK  248  A    between atoms: _589  and  _591
REMARK  249  A    between atoms: _591  and  _592
REMARK  250  A    between atoms: _591  and  _594
REMARK  251  A    between atoms: _594  and  _595
REMARK  252  A    between atoms: _597  and  _599
REMARK  253  A    between atoms: _599  and  _600
REMARK  254  A    between atoms: _599  and  _602
REMARK  255  A    between atoms: _602  and  _603
REMARK  256  A    between atoms: _606  and  _608
REMARK  257  A    between atoms: _608  and  _609
REMARK  258  A    between atoms: _608  and  _611
REMARK  259  A    between atoms: _611  and  _612
REMARK  260  A    between atoms: _617  and  _619
REMARK  261  A    between atoms: _619  and  _620
REMARK  262  A    between atoms: _619  and  _622
REMARK  263  A    between atoms: _622  and  _623
REMARK  264  A    between atoms: _626  and  _628
REMARK  265  A    between atoms: _628  and  _629
REMARK  266  A    between atoms: _628  and  _631
REMARK  267  A    between atoms: _631  and  _632
REMARK  268  A    between atoms: _632  and  _633
REMARK  269  A    between atoms: _638  and  _640
REMARK  270  A    between atoms: _640  and  _641
REMARK  271  A    between atoms: _640  and  _643
REMARK  272  A    between atoms: _643  and  _644
REMARK  273  A    between atoms: _647  and  _649
REMARK  274  A    between atoms: _649  and  _650
REMARK  275  A    between atoms: _649  and  _652
REMARK  276  A    between atoms: _652  and  _653
REMARK  277  A    between atoms: _658  and  _659
REMARK                            x       y       z     vdW  Elec       q    Type
REMARK                         _______ _______ _______ _____ _____    ______ ____
ROOT
ATOM      1  O   HOH     1      10.246  20.870   9.602  0.00  0.00    +0.000 OA
ENDROOT
TORSDOF 0
REMARK  Name = ../refined-set-2016/2i4z/2i4z_pocket.pdb
REMARK  277 active torsions:
REMARK  status: ('A' for Active; 'I' for Inactive)
REMARK    1  A    between atoms: _1  and  _3
REMARK    2  A    between atoms: _3  and  _4
REMARK    3  A    between atoms: _3  and  _6
REMARK    4  A    between atoms: _6  and  _7
REMARK    5  A    between atoms: _12  and  _13
REMARK    6  A    between atoms: _15  and  _17
REMARK    7  A    between atoms: _17  and  _18
REMARK    8  A    between atoms: _17  and  _20
REMARK    9  A    between atoms: _20  and  _21
REMARK   10  A    between atoms: _23  and  _25
REMARK   11  A    between atoms: _25  and  _26
REMARK   12  A    between atoms: _25  and  _28
REMARK   13  A    between atoms: _28  and  _29
REMARK   14  A    between atoms: _36  and  _37
REMARK   15  A    between atoms: _42  and  _44
REMARK   16  A    between atoms: _44  and  _45
REMARK   17  A    between atoms: _44  and  _47
REMARK   18  A    between atoms: _47  and  _48
REMARK   19  A    between atoms: _51  and  _53
REMARK   20  A    between atoms: _53  and  _54
REMARK   21  A    between atoms: _53  and  _56
REMARK   22  A    between atoms: _56  and  _57
REMARK   23  A    between atoms: _63  and  _65
REMARK   24  A    between atoms: _65  and  _66
REMARK   25  A    between atoms: _65  and  _68
REMARK   26  A    between atoms: _68  and  _69
REMARK   27  A    between atoms: _72  and  _74
REMARK   28  A    between atoms: _74  and  _75
REMARK   29  A    between atoms: _74  and  _77
REMARK   30  A    between atoms: _77  and  _78
REMARK   31  A    between atoms: _81  and  _83
REMARK   32  A    between atoms: _83  and  _84
REMARK   33  A    between atoms: _83  and  _86
REMARK   34  A    between atoms: _86  and  _87
REMARK   35  A    between atoms: _93  and  _95
REMARK   36  A    between atoms: _95  and  _96
REMARK   37  A    between atoms: _95  and  _98
REMARK   38  A    between atoms: _98  and  _99
REMARK   39  A    between atoms: _99  and  _100
REMARK   40  A    between atoms: _105  and  _107
REMARK   41  A    between atoms: _107  and  _108
REMARK   42  A    between atoms: _110  and  _112
REMARK   43  A    between atoms: _112  and  _113
REMARK   44  A    between atoms: _112  and  _115
REMARK   45  A    between atoms: _117  and  _119
REMARK   46  A    between atoms: _119  and  _120
REMARK   47  A    between atoms: _119  and  _122
REMARK   48  A    between atoms: _122  and  _123
REMARK   49  A    between atoms: _123  and  _124
REMARK   50  A    between atoms: _129  and  _131
REMARK   51  A    between atoms: _131  and  _132
REMARK   52  A    between atoms: _131  and  _134
REMARK   53  A    between atoms: _134  and  _135
REMARK   54  A    between atoms: _141  and  _143
REMARK   55  A    between atoms: _143  and  _144
REMARK   56  A    between atoms: _143  and  _146
REMARK   57  A    between atoms: _146  and  _147
REMARK   58  A    between atoms: _147  and  _148
REMARK   59  A    between atoms: _148  and  _149
REMARK   60  A    between atoms: _158  and  _160
REMARK   61  A    between atoms: _160  and  _161
REMARK   62  A    between atoms: _160  and  _163
REMARK   63  A    between atoms: _163  and  _164
REMARK   64  A    between atoms: _166  and  _168
REMARK   65  A    between atoms: _168  and  _169
REMARK   66  A    between atoms: _168  and  _171
REMARK   67  A    between atoms: _174  and  _176
REMARK   68  A    between atoms: _176  and  _177
REMARK   69  A    between atoms: _176  and  _179
REMARK   70  A    between atoms: _179  and  _180
REMARK   71  A    between atoms: _180  and  _181
REMARK   72  A    between atoms: _184  and  _186
REMARK   73  A    between atoms: _186  and  _187
REMARK   74  A    between atoms: _190  and  _192
REMARK   75  A    between atoms: _192  and  _193
REMARK   76  A    between atoms: _192  and  _195
REMARK   77  A    between atoms: _198  and  _200
REMARK   78  A    between atoms: _200  and  _201
REMARK   79  A    between atoms: _200  and  _203
REMARK   80  A    between atoms: _203  and  _204
REMARK   81  A    between atoms: _204  and  _205
REMARK   82  A    between atoms: _210  and  _212
REMARK   83  A    between atoms: _212  and  _213
REMARK   84  A    between atoms: _212  and  _215
REMARK   85  A    between atoms: _215  and  _216
REMARK   86  A    between atoms: _216  and  _217
REMARK   87  A    between atoms: _220  and  _222
REMARK   88  A    between atoms: _222  and  _223
REMARK   89  A    between atoms: _222  and  _225
REMARK   90  A    between atoms: _225  and  _226
REMARK   91  A    between atoms: _229  and  _231
REMARK   92  A    between atoms: _231  and  _232
REMARK   93  A    between atoms: _231  and  _234
REMARK   94  A    between atoms: _234  and  _235
REMARK   95  A    between atoms: _238  and  _240
REMARK   96  A    between atoms: _240  and  _241
REMARK   97  A    between atoms: _240  and  _243
REMARK   98  A    between atoms: _246  and  _248
REMARK   99  A    between atoms: _248  and  _249
REMARK  100  A    between atoms: _248  and  _251
REMARK  101  A    between atoms: _251  and  _252
REMARK  102  A    between atoms: _257  and  _259
REMARK  103  A    between atoms: _259  and  _260
REMARK  104  A    between atoms: _259  and  _262
REMARK  105  A    between atoms: _262  and  _263
REMARK  106  A    between atoms: _263  and  _264
REMARK  107  A    between atoms: _267  and  _269
REMARK  108  A    between atoms: _269  and  _270
REMARK  109  A    between atoms: _269  and  _272
REMARK  110  A    between atoms: _272  and  _273
REMARK  111  A    between atoms: _276  and  _278
REMARK  112  A    between atoms: _278  and  _279
REMARK  113  A    between atoms: _278  and  _281
REMARK  114  A    between atoms: _281  and  _282
REMARK  115  A    between atoms: _285  and  _287
REMARK  116  A    between atoms: _287  and  _288
REMARK  117  A    between atoms: _287  and  _290
REMARK  118  A    between atoms: _290  and  _291
REMARK  119  A    between atoms: _296  and  _297
REMARK  120  A    between atoms: _299  and  _301
REMARK  121  A    between atoms: _301  and  _302
REMARK  122  A    between atoms: _301  and  _304
REMARK  123  A    between atoms: _304  and  _305
REMARK  124  A    between atoms: _308  and  _310
REMARK  125  A    between atoms: _310  and  _311
REMARK  126  A    between atoms: _310  and  _313
REMARK  127  A    between atoms: _313  and  _314
REMARK  128  A    between atoms: _314  and  _315
REMARK  129  A    between atoms: _317  and  _319
REMARK  130  A    between atoms: _319  and  _320
REMARK  131  A    between atoms: _319  and  _322
REMARK  132  A    between atoms: _322  and  _323
REMARK  133  A    between atoms: _326  and  _328
REMARK  134  A    between atoms: _328  and  _329
REMARK  135  A    between atoms: _332  and  _334
REMARK  136  A    between atoms: _334  and  _335
REMARK  137  A    between atoms: _334  and  _337
REMARK  138  A    between atoms: _337  and  _338
REMARK  139  A    between atoms: _340  and  _342
REMARK  140  A    between atoms: _342  and  _343
REMARK  141  A    between atoms: _342  and  _345
REMARK  142  A    between atoms: _345  and  _346
REMARK  143  A    between atoms: _349  and  _351
REMARK  144  A    between atoms: _351  and  _352
REMARK  145  A    between atoms: _351  and  _354
REMARK  146  A    between atoms: _354  and  _355
REMARK  147  A    between atoms: _355  and  _356
REMARK  148  A    between atoms: _358  and  _360
REMARK  149  A    between atoms: _360  and  _361
REMARK  150  A    between atoms: _360  and  _363
REMARK  151  A    between atoms: _366  and  _368
REMARK  152  A    between atoms: _368  and  _369
REMARK  153  A    between atoms: _368  and  _371
REMARK  154  A    between atoms: _371  and  _372
REMARK  155  A    between atoms: _375  and  _377
REMARK  156  A    between atoms: _377  and  _378
REMARK  157  A    between atoms: _377  and  _380
REMARK  158  A    between atoms: _380  and  _381
REMARK  159  A    between atoms: _384  and  _386
REMARK  160  A    between atoms: _386  and  _387
REMARK  161  A    between atoms: _386  and  _389
REMARK  162  A    between atoms: _389  and  _390
REMARK  163  A    between atoms: _392  and  _394
REMARK  164  A    between atoms: _394  and  _395
REMARK  165  A    between atoms: _394  and  _397
REMARK  166  A    between atoms: _397  and  _398
REMARK  167  A    between atoms: _398  and  _399
REMARK  168  A    between atoms: _402  and  _404
REMARK  169  A    between atoms: _404  and  _405
REMARK  170  A    between atoms: _404  and  _407
REMARK  171  A    between atoms: _407  and  _408
REMARK  172  A    between atoms: _414  and  _416
REMARK  173  A    between atoms: _416  and  _417
REMARK  174  A    between atoms: _416  and  _419
REMARK  175  A    between atoms: _419  and  _420
REMARK  176  A    between atoms: _420  and  _421
REMARK  177  A    between atoms: _423  and  _425
REMARK  178  A    between atoms: _425  and  _426
REMARK  179  A    between atoms: _425  and  _428
REMARK  180  A    between atoms: _428  and  _429
REMARK  181  A    between atoms: _432  and  _434
REMARK  182  A    between atoms: _434  and  _435
REMARK  183  A    between atoms: _434  and  _437
REMARK  184  A    between atoms: _437  and  _438
REMARK  185  A    between atoms: _441  and  _443
REMARK  186  A    between atoms: _443  and  _444
REMARK  187  A    between atoms: _443  and  _446
REMARK  188  A    between atoms: _446  and  _447
REMARK  189  A    between atoms: _450  and  _452
REMARK  190  A    between atoms: _452  and  _453
REMARK  191  A    between atoms: _452  and  _455
REMARK  192  A    between atoms: _455  and  _456
REMARK  193  A    between atoms: _462  and  _464
REMARK  194  A    between atoms: _464  and  _465
REMARK  195  A    between atoms: _464  and  _467
REMARK  196  A    between atoms: _467  and  _468
REMARK  197  A    between atoms: _474  and  _476
REMARK  198  A    between atoms: _476  and  _477
REMARK  199  A    between atoms: _476  and  _479
REMARK  200  A    between atoms: _479  and  _480
REMARK  201  A    between atoms: _480  and  _481
REMARK  202  A    between atoms: _483  and  _485
REMARK  203  A    between atoms: _485  and  _486
REMARK  204  A    between atoms: _485  and  _488
REMARK  205  A    between atoms: _488  and  _489
REMARK  206  A    between atoms: _489  and  _490
REMARK  207  A    between atoms: _490  and  _491
REMARK  208  A    between atoms: _491  and  _492
REMARK  209  A    between atoms: _496  and  _498
REMARK  210  A    between atoms: _498  and  _499
REMARK  211  A    between atoms: _498  and  _501
REMARK  212  A    between atoms: _501  and  _502
REMARK  213  A    between atoms: _508  and  _510
REMARK  214  A    between atoms: _510  and  _511
REMARK  215  A    between atoms: _510  and  _513
REMARK  216  A    between atoms: _513  and  _514
REMARK  217  A    between atoms: _517  and  _519
REMARK  218  A    between atoms: _519  and  _520
REMARK  219  A    between atoms: _519  and  _522
REMARK  220  A    between atoms: _522  and  _523
REMARK  221  A    between atoms: _526  and  _528
REMARK  222  A    between atoms: _528  and  _529
REMARK  223  A    between atoms: _528  and  _531
REMARK  224  A    between atoms: _534  and  _536
REMARK  225  A    between atoms: _536  and  _537
REMARK  226  A    between atoms: _536  and  _539
REMARK  227  A    between atoms: _539  and  _540
REMARK  228  A    between atoms: _545  and  _547
REMARK  229  A    between atoms: _547  and  _548
REMARK  230  A    between atoms: _547  and  _550
REMARK  231  A    between atoms: _553  and  _555
REMARK  232  A    between atoms: _555  and  _556
REMARK  233  A    between atoms: _555  and  _558
REMARK  234  A    between atoms: _558  and  _559
REMARK  235  A    between atoms: _562  and  _564
REMARK  236  A    between atoms: _564  and  _565
REMARK  237  A    between atoms: _564  and  _567
REMARK  238  A    between atoms: _567  and  _568
REMARK  239  A    between atoms: _571  and  _573
REMARK  240  A    between atoms: _573  and  _574
REMARK  241  A    between atoms: _573  and  _576
REMARK  242  A    between atoms: _576  and  _577
REMARK  243  A    between atoms: _580  and  _582
REMARK  244  A    between atoms: _582  and  _583
REMARK  245  A    between atoms: _582  and  _585
REMARK  246  A    between atoms: _585  and  _586
REMARK  247  A    between atoms: _586  and  _587
REMARK  248  A    between atoms: _589  and  _591
REMARK  249  A    between atoms: _591  and  _592
REMARK  250  A    between atoms: _591  and  _594
REMARK  251  A    between atoms: _594  and  _595
REMARK  252  A    between atoms: _597  and  _599
REMARK  253  A    between atoms: _599  and  _600
REMARK  254  A    between atoms: _599  and  _602
REMARK  255  A    between atoms: _602  and  _603
REMARK  256  A    between atoms: _606  and  _608
REMARK  257  A    between atoms: _608  and  _609
REMARK  258  A    between atoms: _608  and  _611
REMARK  259  A    between atoms: _611  and  _612
REMARK  260  A    between atoms: _617  and  _619
REMARK  261  A    between atoms: _619  and  _620
REMARK  262  A    between atoms: _619  and  _622
REMARK  263  A    between atoms: _622  and  _623
REMARK  264  A    between atoms: _626  and  _628
REMARK  265  A    between atoms: _628  and  _629
REMARK  266  A    between atoms: _628  and  _631
REMARK  267  A    between atoms: _631  and  _632
REMARK  268  A    between atoms: _632  and  _633
REMARK  269  A    between atoms: _638  and  _640
REMARK  270  A    between atoms: _640  and  _641
REMARK  271  A    between atoms: _640  and  _643
REMARK  272  A    between atoms: _643  and  _644
REMARK  273  A    between atoms: _647  and  _649
REMARK  274  A    between atoms: _649  and  _650
REMARK  275  A    between atoms: _649  and  _652
REMARK  276  A    between atoms: _652  and  _653
REMARK  277  A    between atoms: _658  and  _659
REMARK                            x       y       z     vdW  Elec       q    Type
REMARK                         _______ _______ _______ _____ _____    ______ ____
ROOT
ATOM      1  O   HOH     1       9.659  12.844  12.364  0.00  0.00    +0.000 OA
ENDROOT
TORSDOF 0
