REMARK  Name = ../refined-set-2016/1kmy/1kmy_pocket.pdb
REMARK  168 active torsions:
REMARK  status: ('A' for Active; 'I' for Inactive)
REMARK    1  A    between atoms: _1  and  _3
REMARK    2  A    between atoms: _3  and  _4
REMARK    3  A    between atoms: _3  and  _6
REMARK    4  A    between atoms: _6  and  _7
REMARK    5  A    between atoms: _11  and  FE_417
REMARK    6  A    between atoms: _12  and  _14
REMARK    7  A    between atoms: _14  and  _15
REMARK    8  A    between atoms: _14  and  _17
REMARK    9  A    between atoms: _17  and  _18
REMARK   10  A    between atoms: _24  and  _26
REMARK   11  A    between atoms: _26  and  _27
REMARK   12  A    between atoms: _26  and  _29
REMARK   13  A    between atoms: _32  and  _34
REMARK   14  A    between atoms: _34  and  _35
REMARK   15  A    between atoms: _34  and  _37
REMARK   16  A    between atoms: _37  and  _38
REMARK   17  A    between atoms: _38  and  _39
REMARK   18  A    between atoms: _39  and  _40
REMARK   19  A    between atoms: _49  and  _51
REMARK   20  A    between atoms: _51  and  _52
REMARK   21  A    between atoms: _51  and  _54
REMARK   22  A    between atoms: _56  and  _58
REMARK   23  A    between atoms: _58  and  _59
REMARK   24  A    between atoms: _58  and  _61
REMARK   25  A    between atoms: _61  and  _62
REMARK   26  A    between atoms: _65  and  _67
REMARK   27  A    between atoms: _67  and  _68
REMARK   28  A    between atoms: _67  and  _70
REMARK   29  A    between atoms: _70  and  _71
REMARK   30  A    between atoms: _74  and  _76
REMARK   31  A    between atoms: _76  and  _77
REMARK   32  A    between atoms: _76  and  _79
REMARK   33  A    between atoms: _79  and  _80
REMARK   34  A    between atoms: _80  and  _81
REMARK   35  A    between atoms: _83  and  _85
REMARK   36  A    between atoms: _85  and  _86
REMARK   37  A    between atoms: _89  and  _91
REMARK   38  A    between atoms: _91  and  _92
REMARK   39  A    between atoms: _91  and  _94
REMARK   40  A    between atoms: _94  and  _95
REMARK   41  A    between atoms: _100  and  _101
REMARK   42  A    between atoms: _103  and  _105
REMARK   43  A    between atoms: _105  and  _106
REMARK   44  A    between atoms: _105  and  _108
REMARK   45  A    between atoms: _108  and  _109
REMARK   46  A    between atoms: _115  and  _117
REMARK   47  A    between atoms: _117  and  _118
REMARK   48  A    between atoms: _117  and  _120
REMARK   49  A    between atoms: _120  and  _121
REMARK   50  A    between atoms: _126  and  _128
REMARK   51  A    between atoms: _128  and  _129
REMARK   52  A    between atoms: _128  and  _131
REMARK   53  A    between atoms: _131  and  _132
REMARK   54  A    between atoms: _137  and  _139
REMARK   55  A    between atoms: _139  and  _140
REMARK   56  A    between atoms: _143  and  _145
REMARK   57  A    between atoms: _145  and  _146
REMARK   58  A    between atoms: _145  and  _148
REMARK   59  A    between atoms: _148  and  _149
REMARK   60  A    between atoms: _152  and  _154
REMARK   61  A    between atoms: _154  and  _155
REMARK   62  A    between atoms: _158  and  _160
REMARK   63  A    between atoms: _160  and  _161
REMARK   64  A    between atoms: _160  and  _163
REMARK   65  A    between atoms: _163  and  _164
REMARK   66  A    between atoms: _170  and  _172
REMARK   67  A    between atoms: _172  and  _173
REMARK   68  A    between atoms: _172  and  _175
REMARK   69  A    between atoms: _175  and  _176
REMARK   70  A    between atoms: _179  and  _181
REMARK   71  A    between atoms: _181  and  _182
REMARK   72  A    between atoms: _181  and  _184
REMARK   73  A    between atoms: _184  and  _185
REMARK   74  A    between atoms: _190  and  _192
REMARK   75  A    between atoms: _192  and  _193
REMARK   76  A    between atoms: _192  and  _195
REMARK   77  A    between atoms: _195  and  _196
REMARK   78  A    between atoms: _200  and  FE_417
REMARK   79  A    between atoms: _201  and  _203
REMARK   80  A    between atoms: _203  and  _204
REMARK   81  A    between atoms: _203  and  _206
REMARK   82  A    between atoms: _206  and  _207
REMARK   83  A    between atoms: _213  and  _215
REMARK   84  A    between atoms: _215  and  _216
REMARK   85  A    between atoms: _215  and  _218
REMARK   86  A    between atoms: _218  and  _219
REMARK   87  A    between atoms: _219  and  _220
REMARK   88  A    between atoms: _222  and  _224
REMARK   89  A    between atoms: _224  and  _225
REMARK   90  A    between atoms: _224  and  _227
REMARK   91  A    between atoms: _227  and  _228
REMARK   92  A    between atoms: _230  and  _232
REMARK   93  A    between atoms: _232  and  _233
REMARK   94  A    between atoms: _232  and  _235
REMARK   95  A    between atoms: _235  and  _236
REMARK   96  A    between atoms: _236  and  _237
REMARK   97  A    between atoms: _237  and  _238
REMARK   98  A    between atoms: _247  and  _249
REMARK   99  A    between atoms: _249  and  _250
REMARK  100  A    between atoms: _249  and  _252
REMARK  101  A    between atoms: _252  and  _253
REMARK  102  A    between atoms: _258  and  _260
REMARK  103  A    between atoms: _260  and  _261
REMARK  104  A    between atoms: _260  and  _263
REMARK  105  A    between atoms: _263  and  _264
REMARK  106  A    between atoms: _267  and  _269
REMARK  107  A    between atoms: _269  and  _270
REMARK  108  A    between atoms: _269  and  _272
REMARK  109  A    between atoms: _272  and  _273
REMARK  110  A    between atoms: _278  and  _280
REMARK  111  A    between atoms: _280  and  _281
REMARK  112  A    between atoms: _280  and  _283
REMARK  113  A    between atoms: _283  and  _284
REMARK  114  A    between atoms: _287  and  _289
REMARK  115  A    between atoms: _289  and  _290
REMARK  116  A    between atoms: _289  and  _292
REMARK  117  A    between atoms: _292  and  _293
REMARK  118  A    between atoms: _298  and  _300
REMARK  119  A    between atoms: _300  and  _301
REMARK  120  A    between atoms: _300  and  _303
REMARK  121  A    between atoms: _303  and  _304
REMARK  122  A    between atoms: _304  and  _305
REMARK  123  A    between atoms: _307  and  _309
REMARK  124  A    between atoms: _309  and  _310
REMARK  125  A    between atoms: _309  and  _312
REMARK  126  A    between atoms: _312  and  _313
REMARK  127  A    between atoms: _315  and  _317
REMARK  128  A    between atoms: _317  and  _318
REMARK  129  A    between atoms: _317  and  _320
REMARK  130  A    between atoms: _320  and  _321
REMARK  131  A    between atoms: _326  and  _327
REMARK  132  A    between atoms: _329  and  _331
REMARK  133  A    between atoms: _331  and  _332
REMARK  134  A    between atoms: _331  and  _334
REMARK  135  A    between atoms: _334  and  _335
REMARK  136  A    between atoms: _335  and  _336
REMARK  137  A    between atoms: _339  and  _341
REMARK  138  A    between atoms: _341  and  _342
REMARK  139  A    between atoms: _341  and  _344
REMARK  140  A    between atoms: _344  and  _345
REMARK  141  A    between atoms: _345  and  _346
REMARK  142  A    between atoms: _346  and  _348
REMARK  143  A    between atoms: _348  and  FE_417
REMARK  144  A    between atoms: _349  and  _351
REMARK  145  A    between atoms: _351  and  _352
REMARK  146  A    between atoms: _355  and  _357
REMARK  147  A    between atoms: _357  and  _358
REMARK  148  A    between atoms: _357  and  _360
REMARK  149  A    between atoms: _360  and  _361
REMARK  150  A    between atoms: _366  and  _368
REMARK  151  A    between atoms: _368  and  _369
REMARK  152  A    between atoms: _368  and  _371
REMARK  153  A    between atoms: _371  and  _372
REMARK  154  A    between atoms: _375  and  _376
REMARK  155  A    between atoms: _381  and  _383
REMARK  156  A    between atoms: _383  and  _384
REMARK  157  A    between atoms: _383  and  _386
REMARK  158  A    between atoms: _386  and  _387
REMARK  159  A    between atoms: _389  and  _391
REMARK  160  A    between atoms: _391  and  _392
REMARK  161  A    between atoms: _391  and  _394
REMARK  162  A    between atoms: _394  and  _395
REMARK  163  A    between atoms: _400  and  _402
REMARK  164  A    between atoms: _402  and  _403
REMARK  165  A    between atoms: _402  and  _405
REMARK  166  A    between atoms: _405  and  _406
REMARK  167  A    between atoms: _406  and  _407
REMARK  168  A    between atoms: _407  and  _408
REMARK                            x       y       z     vdW  Elec       q    Type
REMARK                         _______ _______ _______ _____ _____    ______ ____
ROOT
ATOM      1  C   UNK A   1      22.799 -15.002  73.683  0.00  0.00    +0.000 A 
ATOM      2  C   UNK A   1      23.577 -16.113  73.603  0.00  0.00    +0.000 A 
ATOM      3  N   UNK A   1      23.192 -16.872  72.481  0.00  0.00    +0.000 N 
ATOM      4  C   UNK A   1      22.206 -16.200  71.920  0.00  0.00    +0.000 A 
ATOM      5  N   UNK A   1      21.943 -15.079  72.607  0.00  0.00    +0.000 NA
ENDROOT
BRANCH   3   6
ATOM      6 FE   UNK A   1      23.502 -18.836  71.623  0.00  0.00    +0.000 Fe
ATOM      7  O   UNK A   1      22.700 -19.195  73.874  0.00  0.00    +0.000 OA
BRANCH   6   8
ATOM      8  N   UNK A   2      25.672 -19.109  72.170  0.00  0.00    +0.000 N 
ATOM      9  C   UNK A   2      25.916 -20.292  72.700  0.00  0.00    +0.000 A 
ATOM     10  N   UNK A   2      27.227 -20.520  72.801  0.00  0.00    +0.000 NA
ATOM     11  C   UNK A   2      27.888 -19.417  72.296  0.00  0.00    +0.000 A 
ATOM     12  C   UNK A   2      26.918 -18.549  71.915  0.00  0.00    +0.000 A 
BRANCH  11  13
ATOM     13  C   UNK A   2      29.387 -19.307  72.181  0.00  0.00    +0.000 C 
BRANCH  13  14
ATOM     14  C   UNK A   2      30.072 -18.704  73.423  0.00  0.00    +0.000 C 
BRANCH  14  15
ATOM     15  C   UNK A   2      29.364 -17.409  73.745  0.00  0.00    +0.000 C 
ATOM     16  O   UNK A   2      28.680 -17.296  74.767  0.00  0.00    +0.000 OA
ATOM     17  N   PHE A   3      29.599 -16.420  72.890  0.00  0.00    +0.000 N 
ATOM     18  H   PHE A   3      30.301 -16.564  72.136  0.00  0.00    +0.000 HD
BRANCH  17  19
ATOM     19  CA  PHE A   3      28.907 -15.142  72.973  0.00  0.00    +0.000 C 
BRANCH  19  20
ATOM     20  C   PHE A   3      28.246 -15.040  71.601  0.00  0.00    +0.000 C 
ATOM     21  N   MET A   4      27.181 -14.265  71.509  0.00  0.00    +0.000 N 
ATOM     22  H   MET A   4      26.868 -13.723  72.340  0.00  0.00    +0.000 HD
ATOM     23  O   PHE A   3      28.678 -15.687  70.642  0.00  0.00    +0.000 OA
BRANCH  21  24
ATOM     24  CA  MET A   4      26.440 -14.159  70.264  0.00  0.00    +0.000 C 
BRANCH  24  25
ATOM     25  C   MET A   4      26.239 -12.708  69.843  0.00  0.00    +0.000 C 
ATOM     26  O   MET A   4      26.038 -11.847  70.691  0.00  0.00    +0.000 OA
ENDBRANCH  24  25
BRANCH  24  27
ATOM     27  CB  MET A   4      25.075 -14.849  70.423  0.00  0.00    +0.000 C 
BRANCH  27  28
ATOM     28  CG  MET A   4      24.131 -14.788  69.218  0.00  0.00    +0.000 C 
BRANCH  28  29
ATOM     29  SD  MET A   4      23.392 -13.158  68.884  0.00  0.00    +0.000 S 
ATOM     30  CE  MET A   4      22.243 -12.995  70.187  0.00  0.00    +0.000 C 
ENDBRANCH  28  29
ENDBRANCH  27  28
ENDBRANCH  24  27
ENDBRANCH  21  24
ENDBRANCH  19  20
BRANCH  19  31
ATOM     31  CB  PHE A   3      29.821 -13.945  73.317  0.00  0.00    +0.000 C 
BRANCH  31  32
ATOM     32  CG  PHE A   3      30.845 -13.608  72.274  0.00  0.00    +0.000 A 
ATOM     33  CD2 PHE A   3      32.049 -14.313  72.211  0.00  0.00    +0.000 A 
ATOM     34  CE2 PHE A   3      33.026 -13.976  71.279  0.00  0.00    +0.000 A 
ATOM     35  CZ  PHE A   3      32.801 -12.919  70.387  0.00  0.00    +0.000 A 
ATOM     36  CE1 PHE A   3      31.593 -12.208  70.445  0.00  0.00    +0.000 A 
ATOM     37  CD1 PHE A   3      30.627 -12.557  71.385  0.00  0.00    +0.000 A 
ENDBRANCH  31  32
ENDBRANCH  19  31
ENDBRANCH  17  19
ENDBRANCH  14  15
BRANCH  14  38
ATOM     38  N   UNK A   2      30.013 -19.625  74.562  0.00  0.00    +0.000 N 
ATOM     39  H   UNK A   2      29.330 -19.447  75.326  0.00  0.00    +0.000 HD
ATOM     40  C   UNK A   1      30.815 -20.683  74.639  0.00  0.00    +0.000 C 
ATOM     41  O   UNK A   1      31.617 -20.969  73.753  0.00  0.00    +0.000 OA
BRANCH  40  42
ATOM     42  C   UNK A   1      30.660 -21.572  75.871  0.00  0.00    +0.000 C 
BRANCH  42  43
ATOM     43  N   UNK A   1      30.574 -20.696  77.012  0.00  0.00    +0.000 NA
ATOM     44  H   UNK A   1      29.643 -20.481  77.424  0.00  0.00    +0.000 HD
ENDBRANCH  42  43
BRANCH  42  45
ATOM     45  C   UNK A   1      29.401 -22.425  75.730  0.00  0.00    +0.000 C 
BRANCH  45  46
ATOM     46  C   UNK A   1      29.348 -23.204  74.451  0.00  0.00    +0.000 A 
ATOM     47  C   UNK A   1      29.828 -24.433  74.135  0.00  0.00    +0.000 A 
ATOM     48  N   UNK A   1      29.547 -24.652  72.807  0.00  0.00    +0.000 NA
ATOM     49  C   UNK A   1      28.911 -23.600  72.324  0.00  0.00    +0.000 A 
ATOM     50  N   UNK A   1      28.786 -22.708  73.294  0.00  0.00    +0.000 NA
ENDBRANCH  45  46
ENDBRANCH  42  45
ENDBRANCH  40  42
ENDBRANCH  14  38
ENDBRANCH  13  14
ENDBRANCH  11  13
ENDBRANCH   6   8
BRANCH   6  51
ATOM     51  O   UNK A   1      24.023 -18.422  69.728  0.00  0.00    +0.000 OA
BRANCH  51  52
ATOM     52  C   UNK A   1      23.964 -18.653  68.497  0.00  0.00    +0.000 C 
ATOM     53  O   UNK A   1      23.006 -19.247  67.964  0.00  0.00    +0.000 OA
BRANCH  52  54
ATOM     54  C   UNK A   1      25.104 -18.239  67.597  0.00  0.00    +0.000 C 
BRANCH  54  55
ATOM     55  C   UNK A   1      26.363 -17.860  68.359  0.00  0.00    +0.000 C 
BRANCH  55  56
ATOM     56  C   UNK A   1      27.510 -17.443  67.439  0.00  0.00    +0.000 C 
BRANCH  56  57
ATOM     57  C   UNK A   1      27.158 -16.166  66.679  0.00  0.00    +0.000 C 
ATOM     58  O   UNK A   1      27.180 -15.078  67.241  0.00  0.00    +0.000 OA
ENDBRANCH  56  57
BRANCH  56  59
ATOM     59  N   UNK A   1      28.697 -17.099  68.212  0.00  0.00    +0.000 NA
ATOM     60  H   UNK A   1      28.603 -16.457  69.025  0.00  0.00    +0.000 HD
ENDBRANCH  56  59
ENDBRANCH  55  56
ENDBRANCH  54  55
ENDBRANCH  52  54
ENDBRANCH  51  52
ENDBRANCH   6  51
ENDBRANCH   3   6
BRANCH   1  61
ATOM     61  C   UNK A   1      22.745 -13.918  74.726  0.00  0.00    +0.000 C 
BRANCH  61  62
ATOM     62  C   UNK A   1      23.998 -13.016  74.795  0.00  0.00    +0.000 C 
BRANCH  62  63
ATOM     63  C   UNK A   1      25.244 -13.879  74.913  0.00  0.00    +0.000 C 
ATOM     64  N   UNK A   2      25.390 -14.553  76.046  0.00  0.00    +0.000 N 
ATOM     65  H   UNK A   2      24.709 -14.417  76.820  0.00  0.00    +0.000 HD
ATOM     66  O   UNK A   1      26.103 -13.873  74.026  0.00  0.00    +0.000 OA
BRANCH  64  67
ATOM     67  C   UNK A   2      26.495 -15.480  76.213  0.00  0.00    +0.000 C 
BRANCH  67  68
ATOM     68  C   UNK A   2      26.031 -16.583  77.134  0.00  0.00    +0.000 C 
ATOM     69  O   UNK A   2      25.044 -16.419  77.860  0.00  0.00    +0.000 OA
ATOM     70  N   PHE A   3      26.645 -17.747  76.972  0.00  0.00    +0.000 N 
ATOM     71  H   PHE A   3      27.387 -17.825  76.247  0.00  0.00    +0.000 HD
BRANCH  70  72
ATOM     72  CA  PHE A   3      26.319 -18.919  77.771  0.00  0.00    +0.000 C 
BRANCH  72  73
ATOM     73  C   PHE A   3      27.399 -19.078  78.835  0.00  0.00    +0.000 C 
ATOM     74  N   MET A   4      26.988 -18.964  80.092  0.00  0.00    +0.000 N 
ATOM     75  H   MET A   4      25.978 -18.775  80.255  0.00  0.00    +0.000 HD
ATOM     76  O   PHE A   3      28.565 -19.281  78.509  0.00  0.00    +0.000 OA
BRANCH  74  77
ATOM     77  CA  MET A   4      27.854 -19.085  81.264  0.00  0.00    +0.000 C 
BRANCH  77  78
ATOM     78  C   MET A   4      27.914 -20.553  81.727  0.00  0.00    +0.000 C 
ATOM     79  O   MET A   4      26.885 -21.154  82.061  0.00  0.00    +0.000 OA
ATOM     80  N   CYS A   5      29.100 -21.146  81.663  0.00  0.00    +0.000 N 
ATOM     81  H   CYS A   5      29.911 -20.622  81.277  0.00  0.00    +0.000 HD
BRANCH  80  82
ATOM     82  CA  CYS A   5      29.289 -22.522  82.124  0.00  0.00    +0.000 C 
BRANCH  82  83
ATOM     83  C   CYS A   5      29.539 -22.469  83.628  0.00  0.00    +0.000 C 
ATOM     84  O   CYS A   5      30.367 -21.677  84.089  0.00  0.00    +0.000 OA
ENDBRANCH  82  83
BRANCH  82  85
ATOM     85  CB  CYS A   5      30.490 -23.148  81.437  0.00  0.00    +0.000 C 
ATOM     86  SG  CYS A   5      30.233 -23.275  79.698  0.00  0.00    +0.000 S 
ENDBRANCH  82  85
ENDBRANCH  80  82
ENDBRANCH  77  78
BRANCH  77  87
ATOM     87  CB  MET A   4      27.274 -18.208  82.380  0.00  0.00    +0.000 C 
BRANCH  87  88
ATOM     88  CG  MET A   4      28.001 -18.249  83.708  0.00  0.00    +0.000 C 
BRANCH  88  89
ATOM     89  CD  MET A   4      29.340 -17.544  83.627  0.00  0.00    +0.000 C 
BRANCH  89  90
ATOM     90  NE  MET A   4      29.908 -17.381  84.964  0.00  0.00    +0.330 N 
ATOM     91  HE  MET A   4      29.432 -16.722  85.612  0.00  0.00    +0.000 HD
ATOM     92  CZ  MET A   4      30.987 -18.013  85.412  0.00  0.00    +0.000 C 
ATOM     93  NH2 MET A   4      31.398 -17.824  86.662  0.00  0.00    +0.330 N 
ATOM     94 HH21 MET A   4      30.875 -17.181  87.290  0.00  0.00    +0.000 HD
ATOM     95 HH22 MET A   4      32.243 -18.319  87.012  0.00  0.00    +0.000 HD
ATOM     96  NH1 MET A   4      31.628 -18.851  84.621  0.00  0.00    +0.330 N 
ATOM     97 HH11 MET A   4      32.473 -19.349  84.966  0.00  0.00    +0.000 HD
ATOM     98 HH12 MET A   4      31.288 -19.014  83.652  0.00  0.00    +0.000 HD
ENDBRANCH  89  90
ENDBRANCH  88  89
ENDBRANCH  87  88
ENDBRANCH  77  87
ENDBRANCH  74  77
ENDBRANCH  72  73
BRANCH  72  99
ATOM     99  CB  PHE A   3      26.266 -20.209  76.901  0.00  0.00    +0.000 C 
ATOM    100  CG2 PHE A   3      25.982 -21.434  77.784  0.00  0.00    +0.000 C 
ATOM    101  CG1 PHE A   3      25.207 -20.081  75.816  0.00  0.00    +0.000 C 
ENDBRANCH  72  99
ENDBRANCH  70  72
ENDBRANCH  67  68
BRANCH  67 102
ATOM    102  C   UNK A   2      27.833 -14.823  76.650  0.00  0.00    +0.000 C 
BRANCH 102 103
ATOM    103  C   UNK A   2      27.833 -14.200  78.022  0.00  0.00    +0.000 A 
ATOM    104  C   UNK A   2      27.827 -14.985  79.172  0.00  0.00    +0.000 A 
ATOM    105  C   UNK A   2      27.904 -14.398  80.462  0.00  0.00    +0.000 A 
ATOM    106  C   UNK A   2      27.988 -13.011  80.593  0.00  0.00    +0.000 A 
ATOM    107  C   UNK A   2      27.995 -12.213  79.445  0.00  0.00    +0.000 A 
ATOM    108  C   UNK A   2      27.916 -12.815  78.167  0.00  0.00    +0.000 A 
ENDBRANCH 102 103
ENDBRANCH  67 102
ENDBRANCH  64  67
ENDBRANCH  62  63
BRANCH  62 109
ATOM    109  N   UNK A   1      24.059 -12.113  73.652  0.00  0.00    +0.000 NA
ATOM    110  H   UNK A   1      24.567 -12.399  72.791  0.00  0.00    +0.000 HD
ENDBRANCH  62 109
ENDBRANCH  61  62
ENDBRANCH   1  61
TORSDOF 46
REMARK  Name = ../refined-set-2016/1kmy/1kmy_pocket.pdb
REMARK  168 active torsions:
REMARK  status: ('A' for Active; 'I' for Inactive)
REMARK    1  A    between atoms: _1  and  _3
REMARK    2  A    between atoms: _3  and  _4
REMARK    3  A    between atoms: _3  and  _6
REMARK    4  A    between atoms: _6  and  _7
REMARK    5  A    between atoms: _11  and  FE_417
REMARK    6  A    between atoms: _12  and  _14
REMARK    7  A    between atoms: _14  and  _15
REMARK    8  A    between atoms: _14  and  _17
REMARK    9  A    between atoms: _17  and  _18
REMARK   10  A    between atoms: _24  and  _26
REMARK   11  A    between atoms: _26  and  _27
REMARK   12  A    between atoms: _26  and  _29
REMARK   13  A    between atoms: _32  and  _34
REMARK   14  A    between atoms: _34  and  _35
REMARK   15  A    between atoms: _34  and  _37
REMARK   16  A    between atoms: _37  and  _38
REMARK   17  A    between atoms: _38  and  _39
REMARK   18  A    between atoms: _39  and  _40
REMARK   19  A    between atoms: _49  and  _51
REMARK   20  A    between atoms: _51  and  _52
REMARK   21  A    between atoms: _51  and  _54
REMARK   22  A    between atoms: _56  and  _58
REMARK   23  A    between atoms: _58  and  _59
REMARK   24  A    between atoms: _58  and  _61
REMARK   25  A    between atoms: _61  and  _62
REMARK   26  A    between atoms: _65  and  _67
REMARK   27  A    between atoms: _67  and  _68
REMARK   28  A    between atoms: _67  and  _70
REMARK   29  A    between atoms: _70  and  _71
REMARK   30  A    between atoms: _74  and  _76
REMARK   31  A    between atoms: _76  and  _77
REMARK   32  A    between atoms: _76  and  _79
REMARK   33  A    between atoms: _79  and  _80
REMARK   34  A    between atoms: _80  and  _81
REMARK   35  A    between atoms: _83  and  _85
REMARK   36  A    between atoms: _85  and  _86
REMARK   37  A    between atoms: _89  and  _91
REMARK   38  A    between atoms: _91  and  _92
REMARK   39  A    between atoms: _91  and  _94
REMARK   40  A    between atoms: _94  and  _95
REMARK   41  A    between atoms: _100  and  _101
REMARK   42  A    between atoms: _103  and  _105
REMARK   43  A    between atoms: _105  and  _106
REMARK   44  A    between atoms: _105  and  _108
REMARK   45  A    between atoms: _108  and  _109
REMARK   46  A    between atoms: _115  and  _117
REMARK   47  A    between atoms: _117  and  _118
REMARK   48  A    between atoms: _117  and  _120
REMARK   49  A    between atoms: _120  and  _121
REMARK   50  A    between atoms: _126  and  _128
REMARK   51  A    between atoms: _128  and  _129
REMARK   52  A    between atoms: _128  and  _131
REMARK   53  A    between atoms: _131  and  _132
REMARK   54  A    between atoms: _137  and  _139
REMARK   55  A    between atoms: _139  and  _140
REMARK   56  A    between atoms: _143  and  _145
REMARK   57  A    between atoms: _145  and  _146
REMARK   58  A    between atoms: _145  and  _148
REMARK   59  A    between atoms: _148  and  _149
REMARK   60  A    between atoms: _152  and  _154
REMARK   61  A    between atoms: _154  and  _155
REMARK   62  A    between atoms: _158  and  _160
REMARK   63  A    between atoms: _160  and  _161
REMARK   64  A    between atoms: _160  and  _163
REMARK   65  A    between atoms: _163  and  _164
REMARK   66  A    between atoms: _170  and  _172
REMARK   67  A    between atoms: _172  and  _173
REMARK   68  A    between atoms: _172  and  _175
REMARK   69  A    between atoms: _175  and  _176
REMARK   70  A    between atoms: _179  and  _181
REMARK   71  A    between atoms: _181  and  _182
REMARK   72  A    between atoms: _181  and  _184
REMARK   73  A    between atoms: _184  and  _185
REMARK   74  A    between atoms: _190  and  _192
REMARK   75  A    between atoms: _192  and  _193
REMARK   76  A    between atoms: _192  and  _195
REMARK   77  A    between atoms: _195  and  _196
REMARK   78  A    between atoms: _200  and  FE_417
REMARK   79  A    between atoms: _201  and  _203
REMARK   80  A    between atoms: _203  and  _204
REMARK   81  A    between atoms: _203  and  _206
REMARK   82  A    between atoms: _206  and  _207
REMARK   83  A    between atoms: _213  and  _215
REMARK   84  A    between atoms: _215  and  _216
REMARK   85  A    between atoms: _215  and  _218
REMARK   86  A    between atoms: _218  and  _219
REMARK   87  A    between atoms: _219  and  _220
REMARK   88  A    between atoms: _222  and  _224
REMARK   89  A    between atoms: _224  and  _225
REMARK   90  A    between atoms: _224  and  _227
REMARK   91  A    between atoms: _227  and  _228
REMARK   92  A    between atoms: _230  and  _232
REMARK   93  A    between atoms: _232  and  _233
REMARK   94  A    between atoms: _232  and  _235
REMARK   95  A    between atoms: _235  and  _236
REMARK   96  A    between atoms: _236  and  _237
REMARK   97  A    between atoms: _237  and  _238
REMARK   98  A    between atoms: _247  and  _249
REMARK   99  A    between atoms: _249  and  _250
REMARK  100  A    between atoms: _249  and  _252
REMARK  101  A    between atoms: _252  and  _253
REMARK  102  A    between atoms: _258  and  _260
REMARK  103  A    between atoms: _260  and  _261
REMARK  104  A    between atoms: _260  and  _263
REMARK  105  A    between atoms: _263  and  _264
REMARK  106  A    between atoms: _267  and  _269
REMARK  107  A    between atoms: _269  and  _270
REMARK  108  A    between atoms: _269  and  _272
REMARK  109  A    between atoms: _272  and  _273
REMARK  110  A    between atoms: _278  and  _280
REMARK  111  A    between atoms: _280  and  _281
REMARK  112  A    between atoms: _280  and  _283
REMARK  113  A    between atoms: _283  and  _284
REMARK  114  A    between atoms: _287  and  _289
REMARK  115  A    between atoms: _289  and  _290
REMARK  116  A    between atoms: _289  and  _292
REMARK  117  A    between atoms: _292  and  _293
REMARK  118  A    between atoms: _298  and  _300
REMARK  119  A    between atoms: _300  and  _301
REMARK  120  A    between atoms: _300  and  _303
REMARK  121  A    between atoms: _303  and  _304
REMARK  122  A    between atoms: _304  and  _305
REMARK  123  A    between atoms: _307  and  _309
REMARK  124  A    between atoms: _309  and  _310
REMARK  125  A    between atoms: _309  and  _312
REMARK  126  A    between atoms: _312  and  _313
REMARK  127  A    between atoms: _315  and  _317
REMARK  128  A    between atoms: _317  and  _318
REMARK  129  A    between atoms: _317  and  _320
REMARK  130  A    between atoms: _320  and  _321
REMARK  131  A    between atoms: _326  and  _327
REMARK  132  A    between atoms: _329  and  _331
REMARK  133  A    between atoms: _331  and  _332
REMARK  134  A    between atoms: _331  and  _334
REMARK  135  A    between atoms: _334  and  _335
REMARK  136  A    between atoms: _335  and  _336
REMARK  137  A    between atoms: _339  and  _341
REMARK  138  A    between atoms: _341  and  _342
REMARK  139  A    between atoms: _341  and  _344
REMARK  140  A    between atoms: _344  and  _345
REMARK  141  A    between atoms: _345  and  _346
REMARK  142  A    between atoms: _346  and  _348
REMARK  143  A    between atoms: _348  and  FE_417
REMARK  144  A    between atoms: _349  and  _351
REMARK  145  A    between atoms: _351  and  _352
REMARK  146  A    between atoms: _355  and  _357
REMARK  147  A    between atoms: _357  and  _358
REMARK  148  A    between atoms: _357  and  _360
REMARK  149  A    between atoms: _360  and  _361
REMARK  150  A    between atoms: _366  and  _368
REMARK  151  A    between atoms: _368  and  _369
REMARK  152  A    between atoms: _368  and  _371
REMARK  153  A    between atoms: _371  and  _372
REMARK  154  A    between atoms: _375  and  _376
REMARK  155  A    between atoms: _381  and  _383
REMARK  156  A    between atoms: _383  and  _384
REMARK  157  A    between atoms: _383  and  _386
REMARK  158  A    between atoms: _386  and  _387
REMARK  159  A    between atoms: _389  and  _391
REMARK  160  A    between atoms: _391  and  _392
REMARK  161  A    between atoms: _391  and  _394
REMARK  162  A    between atoms: _394  and  _395
REMARK  163  A    between atoms: _400  and  _402
REMARK  164  A    between atoms: _402  and  _403
REMARK  165  A    between atoms: _402  and  _405
REMARK  166  A    between atoms: _405  and  _406
REMARK  167  A    between atoms: _406  and  _407
REMARK  168  A    between atoms: _407  and  _408
REMARK                            x       y       z     vdW  Elec       q    Type
REMARK                         _______ _______ _______ _____ _____    ______ ____
ROOT
ATOM      1  CA  ASP A   1      12.731 -21.555  78.744  0.00  0.00    +0.144 C 
ENDROOT
BRANCH   1   2
ATOM      2  N   ASP A   1      13.001 -20.144  78.934  0.00  0.00    -0.239 NA
ATOM      3  H   ASP A   1      13.985 -19.827  79.043  0.00  0.00    +0.142 HD
ENDBRANCH   1   2
BRANCH   1   4
ATOM      4  C   ASP A   1      13.930 -22.413  79.122  0.00  0.00    +0.225 C 
ATOM      5  O   ASP A   1      14.971 -21.902  79.540  0.00  0.00    -0.287 OA
ENDBRANCH   1   4
BRANCH   1   6
ATOM      6  CB  ASP A   1      12.270 -21.853  77.291  0.00  0.00    +0.139 C 
BRANCH   6   7
ATOM      7  CG  ASP A   1      13.084 -21.120  76.236  0.00  0.00    +0.367 C 
ATOM      8  OD2 ASP A   1      14.336 -21.145  76.277  0.00  0.00    -0.246 OA
ATOM      9  OD1 ASP A   1      12.455 -20.533  75.328  0.00  0.00    -0.246 OA
ENDBRANCH   6   7
ENDBRANCH   1   6
TORSDOF 4
REMARK  Name = ../refined-set-2016/1kmy/1kmy_pocket.pdb
REMARK  168 active torsions:
REMARK  status: ('A' for Active; 'I' for Inactive)
REMARK    1  A    between atoms: _1  and  _3
REMARK    2  A    between atoms: _3  and  _4
REMARK    3  A    between atoms: _3  and  _6
REMARK    4  A    between atoms: _6  and  _7
REMARK    5  A    between atoms: _11  and  FE_417
REMARK    6  A    between atoms: _12  and  _14
REMARK    7  A    between atoms: _14  and  _15
REMARK    8  A    between atoms: _14  and  _17
REMARK    9  A    between atoms: _17  and  _18
REMARK   10  A    between atoms: _24  and  _26
REMARK   11  A    between atoms: _26  and  _27
REMARK   12  A    between atoms: _26  and  _29
REMARK   13  A    between atoms: _32  and  _34
REMARK   14  A    between atoms: _34  and  _35
REMARK   15  A    between atoms: _34  and  _37
REMARK   16  A    between atoms: _37  and  _38
REMARK   17  A    between atoms: _38  and  _39
REMARK   18  A    between atoms: _39  and  _40
REMARK   19  A    between atoms: _49  and  _51
REMARK   20  A    between atoms: _51  and  _52
REMARK   21  A    between atoms: _51  and  _54
REMARK   22  A    between atoms: _56  and  _58
REMARK   23  A    between atoms: _58  and  _59
REMARK   24  A    between atoms: _58  and  _61
REMARK   25  A    between atoms: _61  and  _62
REMARK   26  A    between atoms: _65  and  _67
REMARK   27  A    between atoms: _67  and  _68
REMARK   28  A    between atoms: _67  and  _70
REMARK   29  A    between atoms: _70  and  _71
REMARK   30  A    between atoms: _74  and  _76
REMARK   31  A    between atoms: _76  and  _77
REMARK   32  A    between atoms: _76  and  _79
REMARK   33  A    between atoms: _79  and  _80
REMARK   34  A    between atoms: _80  and  _81
REMARK   35  A    between atoms: _83  and  _85
REMARK   36  A    between atoms: _85  and  _86
REMARK   37  A    between atoms: _89  and  _91
REMARK   38  A    between atoms: _91  and  _92
REMARK   39  A    between atoms: _91  and  _94
REMARK   40  A    between atoms: _94  and  _95
REMARK   41  A    between atoms: _100  and  _101
REMARK   42  A    between atoms: _103  and  _105
REMARK   43  A    between atoms: _105  and  _106
REMARK   44  A    between atoms: _105  and  _108
REMARK   45  A    between atoms: _108  and  _109
REMARK   46  A    between atoms: _115  and  _117
REMARK   47  A    between atoms: _117  and  _118
REMARK   48  A    between atoms: _117  and  _120
REMARK   49  A    between atoms: _120  and  _121
REMARK   50  A    between atoms: _126  and  _128
REMARK   51  A    between atoms: _128  and  _129
REMARK   52  A    between atoms: _128  and  _131
REMARK   53  A    between atoms: _131  and  _132
REMARK   54  A    between atoms: _137  and  _139
REMARK   55  A    between atoms: _139  and  _140
REMARK   56  A    between atoms: _143  and  _145
REMARK   57  A    between atoms: _145  and  _146
REMARK   58  A    between atoms: _145  and  _148
REMARK   59  A    between atoms: _148  and  _149
REMARK   60  A    between atoms: _152  and  _154
REMARK   61  A    between atoms: _154  and  _155
REMARK   62  A    between atoms: _158  and  _160
REMARK   63  A    between atoms: _160  and  _161
REMARK   64  A    between atoms: _160  and  _163
REMARK   65  A    between atoms: _163  and  _164
REMARK   66  A    between atoms: _170  and  _172
REMARK   67  A    between atoms: _172  and  _173
REMARK   68  A    between atoms: _172  and  _175
REMARK   69  A    between atoms: _175  and  _176
REMARK   70  A    between atoms: _179  and  _181
REMARK   71  A    between atoms: _181  and  _182
REMARK   72  A    between atoms: _181  and  _184
REMARK   73  A    between atoms: _184  and  _185
REMARK   74  A    between atoms: _190  and  _192
REMARK   75  A    between atoms: _192  and  _193
REMARK   76  A    between atoms: _192  and  _195
REMARK   77  A    between atoms: _195  and  _196
REMARK   78  A    between atoms: _200  and  FE_417
REMARK   79  A    between atoms: _201  and  _203
REMARK   80  A    between atoms: _203  and  _204
REMARK   81  A    between atoms: _203  and  _206
REMARK   82  A    between atoms: _206  and  _207
REMARK   83  A    between atoms: _213  and  _215
REMARK   84  A    between atoms: _215  and  _216
REMARK   85  A    between atoms: _215  and  _218
REMARK   86  A    between atoms: _218  and  _219
REMARK   87  A    between atoms: _219  and  _220
REMARK   88  A    between atoms: _222  and  _224
REMARK   89  A    between atoms: _224  and  _225
REMARK   90  A    between atoms: _224  and  _227
REMARK   91  A    between atoms: _227  and  _228
REMARK   92  A    between atoms: _230  and  _232
REMARK   93  A    between atoms: _232  and  _233
REMARK   94  A    between atoms: _232  and  _235
REMARK   95  A    between atoms: _235  and  _236
REMARK   96  A    between atoms: _236  and  _237
REMARK   97  A    between atoms: _237  and  _238
REMARK   98  A    between atoms: _247  and  _249
REMARK   99  A    between atoms: _249  and  _250
REMARK  100  A    between atoms: _249  and  _252
REMARK  101  A    between atoms: _252  and  _253
REMARK  102  A    between atoms: _258  and  _260
REMARK  103  A    between atoms: _260  and  _261
REMARK  104  A    between atoms: _260  and  _263
REMARK  105  A    between atoms: _263  and  _264
REMARK  106  A    between atoms: _267  and  _269
REMARK  107  A    between atoms: _269  and  _270
REMARK  108  A    between atoms: _269  and  _272
REMARK  109  A    between atoms: _272  and  _273
REMARK  110  A    between atoms: _278  and  _280
REMARK  111  A    between atoms: _280  and  _281
REMARK  112  A    between atoms: _280  and  _283
REMARK  113  A    between atoms: _283  and  _284
REMARK  114  A    between atoms: _287  and  _289
REMARK  115  A    between atoms: _289  and  _290
REMARK  116  A    between atoms: _289  and  _292
REMARK  117  A    between atoms: _292  and  _293
REMARK  118  A    between atoms: _298  and  _300
REMARK  119  A    between atoms: _300  and  _301
REMARK  120  A    between atoms: _300  and  _303
REMARK  121  A    between atoms: _303  and  _304
REMARK  122  A    between atoms: _304  and  _305
REMARK  123  A    between atoms: _307  and  _309
REMARK  124  A    between atoms: _309  and  _310
REMARK  125  A    between atoms: _309  and  _312
REMARK  126  A    between atoms: _312  and  _313
REMARK  127  A    between atoms: _315  and  _317
REMARK  128  A    between atoms: _317  and  _318
REMARK  129  A    between atoms: _317  and  _320
REMARK  130  A    between atoms: _320  and  _321
REMARK  131  A    between atoms: _326  and  _327
REMARK  132  A    between atoms: _329  and  _331
REMARK  133  A    between atoms: _331  and  _332
REMARK  134  A    between atoms: _331  and  _334
REMARK  135  A    between atoms: _334  and  _335
REMARK  136  A    between atoms: _335  and  _336
REMARK  137  A    between atoms: _339  and  _341
REMARK  138  A    between atoms: _341  and  _342
REMARK  139  A    between atoms: _341  and  _344
REMARK  140  A    between atoms: _344  and  _345
REMARK  141  A    between atoms: _345  and  _346
REMARK  142  A    between atoms: _346  and  _348
REMARK  143  A    between atoms: _348  and  FE_417
REMARK  144  A    between atoms: _349  and  _351
REMARK  145  A    between atoms: _351  and  _352
REMARK  146  A    between atoms: _355  and  _357
REMARK  147  A    between atoms: _357  and  _358
REMARK  148  A    between atoms: _357  and  _360
REMARK  149  A    between atoms: _360  and  _361
REMARK  150  A    between atoms: _366  and  _368
REMARK  151  A    between atoms: _368  and  _369
REMARK  152  A    between atoms: _368  and  _371
REMARK  153  A    between atoms: _371  and  _372
REMARK  154  A    between atoms: _375  and  _376
REMARK  155  A    between atoms: _381  and  _383
REMARK  156  A    between atoms: _383  and  _384
REMARK  157  A    between atoms: _383  and  _386
REMARK  158  A    between atoms: _386  and  _387
REMARK  159  A    between atoms: _389  and  _391
REMARK  160  A    between atoms: _391  and  _392
REMARK  161  A    between atoms: _391  and  _394
REMARK  162  A    between atoms: _394  and  _395
REMARK  163  A    between atoms: _400  and  _402
REMARK  164  A    between atoms: _402  and  _403
REMARK  165  A    between atoms: _402  and  _405
REMARK  166  A    between atoms: _405  and  _406
REMARK  167  A    between atoms: _406  and  _407
REMARK  168  A    between atoms: _407  and  _408
REMARK                            x       y       z     vdW  Elec       q    Type
REMARK                         _______ _______ _______ _____ _____    ______ ____
ROOT
ATOM      1  CA  ILE A   1      16.411 -27.101  76.934  0.00  0.00    +0.133 C 
ENDROOT
BRANCH   1   2
ATOM      2  N   ILE A   1      16.163 -26.072  77.936  0.00  0.00    -0.239 NA
ATOM      3  H   ILE A   1      16.968 -25.629  78.422  0.00  0.00    +0.142 HD
ENDBRANCH   1   2
BRANCH   1   4
ATOM      4  C   ILE A   1      17.201 -28.219  77.628  0.00  0.00    +0.224 C 
ATOM      5  O   ILE A   1      18.218 -27.950  78.280  0.00  0.00    -0.287 OA
ENDBRANCH   1   4
BRANCH   1   6
ATOM      6  CB  ILE A   1      17.228 -26.579  75.706  0.00  0.00    +0.023 C 
ATOM      7  CG2 ILE A   1      17.466 -27.726  74.704  0.00  0.00    +0.002 C 
BRANCH   6   8
ATOM      8  CG1 ILE A   1      16.467 -25.456  74.979  0.00  0.00    +0.002 C 
ATOM      9  CD1 ILE A   1      17.194 -24.908  73.764  0.00  0.00    +0.000 C 
ENDBRANCH   6   8
ENDBRANCH   1   6
TORSDOF 4
REMARK  Name = ../refined-set-2016/1kmy/1kmy_pocket.pdb
REMARK  168 active torsions:
REMARK  status: ('A' for Active; 'I' for Inactive)
REMARK    1  A    between atoms: _1  and  _3
REMARK    2  A    between atoms: _3  and  _4
REMARK    3  A    between atoms: _3  and  _6
REMARK    4  A    between atoms: _6  and  _7
REMARK    5  A    between atoms: _11  and  FE_417
REMARK    6  A    between atoms: _12  and  _14
REMARK    7  A    between atoms: _14  and  _15
REMARK    8  A    between atoms: _14  and  _17
REMARK    9  A    between atoms: _17  and  _18
REMARK   10  A    between atoms: _24  and  _26
REMARK   11  A    between atoms: _26  and  _27
REMARK   12  A    between atoms: _26  and  _29
REMARK   13  A    between atoms: _32  and  _34
REMARK   14  A    between atoms: _34  and  _35
REMARK   15  A    between atoms: _34  and  _37
REMARK   16  A    between atoms: _37  and  _38
REMARK   17  A    between atoms: _38  and  _39
REMARK   18  A    between atoms: _39  and  _40
REMARK   19  A    between atoms: _49  and  _51
REMARK   20  A    between atoms: _51  and  _52
REMARK   21  A    between atoms: _51  and  _54
REMARK   22  A    between atoms: _56  and  _58
REMARK   23  A    between atoms: _58  and  _59
REMARK   24  A    between atoms: _58  and  _61
REMARK   25  A    between atoms: _61  and  _62
REMARK   26  A    between atoms: _65  and  _67
REMARK   27  A    between atoms: _67  and  _68
REMARK   28  A    between atoms: _67  and  _70
REMARK   29  A    between atoms: _70  and  _71
REMARK   30  A    between atoms: _74  and  _76
REMARK   31  A    between atoms: _76  and  _77
REMARK   32  A    between atoms: _76  and  _79
REMARK   33  A    between atoms: _79  and  _80
REMARK   34  A    between atoms: _80  and  _81
REMARK   35  A    between atoms: _83  and  _85
REMARK   36  A    between atoms: _85  and  _86
REMARK   37  A    between atoms: _89  and  _91
REMARK   38  A    between atoms: _91  and  _92
REMARK   39  A    between atoms: _91  and  _94
REMARK   40  A    between atoms: _94  and  _95
REMARK   41  A    between atoms: _100  and  _101
REMARK   42  A    between atoms: _103  and  _105
REMARK   43  A    between atoms: _105  and  _106
REMARK   44  A    between atoms: _105  and  _108
REMARK   45  A    between atoms: _108  and  _109
REMARK   46  A    between atoms: _115  and  _117
REMARK   47  A    between atoms: _117  and  _118
REMARK   48  A    between atoms: _117  and  _120
REMARK   49  A    between atoms: _120  and  _121
REMARK   50  A    between atoms: _126  and  _128
REMARK   51  A    between atoms: _128  and  _129
REMARK   52  A    between atoms: _128  and  _131
REMARK   53  A    between atoms: _131  and  _132
REMARK   54  A    between atoms: _137  and  _139
REMARK   55  A    between atoms: _139  and  _140
REMARK   56  A    between atoms: _143  and  _145
REMARK   57  A    between atoms: _145  and  _146
REMARK   58  A    between atoms: _145  and  _148
REMARK   59  A    between atoms: _148  and  _149
REMARK   60  A    between atoms: _152  and  _154
REMARK   61  A    between atoms: _154  and  _155
REMARK   62  A    between atoms: _158  and  _160
REMARK   63  A    between atoms: _160  and  _161
REMARK   64  A    between atoms: _160  and  _163
REMARK   65  A    between atoms: _163  and  _164
REMARK   66  A    between atoms: _170  and  _172
REMARK   67  A    between atoms: _172  and  _173
REMARK   68  A    between atoms: _172  and  _175
REMARK   69  A    between atoms: _175  and  _176
REMARK   70  A    between atoms: _179  and  _181
REMARK   71  A    between atoms: _181  and  _182
REMARK   72  A    between atoms: _181  and  _184
REMARK   73  A    between atoms: _184  and  _185
REMARK   74  A    between atoms: _190  and  _192
REMARK   75  A    between atoms: _192  and  _193
REMARK   76  A    between atoms: _192  and  _195
REMARK   77  A    between atoms: _195  and  _196
REMARK   78  A    between atoms: _200  and  FE_417
REMARK   79  A    between atoms: _201  and  _203
REMARK   80  A    between atoms: _203  and  _204
REMARK   81  A    between atoms: _203  and  _206
REMARK   82  A    between atoms: _206  and  _207
REMARK   83  A    between atoms: _213  and  _215
REMARK   84  A    between atoms: _215  and  _216
REMARK   85  A    between atoms: _215  and  _218
REMARK   86  A    between atoms: _218  and  _219
REMARK   87  A    between atoms: _219  and  _220
REMARK   88  A    between atoms: _222  and  _224
REMARK   89  A    between atoms: _224  and  _225
REMARK   90  A    between atoms: _224  and  _227
REMARK   91  A    between atoms: _227  and  _228
REMARK   92  A    between atoms: _230  and  _232
REMARK   93  A    between atoms: _232  and  _233
REMARK   94  A    between atoms: _232  and  _235
REMARK   95  A    between atoms: _235  and  _236
REMARK   96  A    between atoms: _236  and  _237
REMARK   97  A    between atoms: _237  and  _238
REMARK   98  A    between atoms: _247  and  _249
REMARK   99  A    between atoms: _249  and  _250
REMARK  100  A    between atoms: _249  and  _252
REMARK  101  A    between atoms: _252  and  _253
REMARK  102  A    between atoms: _258  and  _260
REMARK  103  A    between atoms: _260  and  _261
REMARK  104  A    between atoms: _260  and  _263
REMARK  105  A    between atoms: _263  and  _264
REMARK  106  A    between atoms: _267  and  _269
REMARK  107  A    between atoms: _269  and  _270
REMARK  108  A    between atoms: _269  and  _272
REMARK  109  A    between atoms: _272  and  _273
REMARK  110  A    between atoms: _278  and  _280
REMARK  111  A    between atoms: _280  and  _281
REMARK  112  A    between atoms: _280  and  _283
REMARK  113  A    between atoms: _283  and  _284
REMARK  114  A    between atoms: _287  and  _289
REMARK  115  A    between atoms: _289  and  _290
REMARK  116  A    between atoms: _289  and  _292
REMARK  117  A    between atoms: _292  and  _293
REMARK  118  A    between atoms: _298  and  _300
REMARK  119  A    between atoms: _300  and  _301
REMARK  120  A    between atoms: _300  and  _303
REMARK  121  A    between atoms: _303  and  _304
REMARK  122  A    between atoms: _304  and  _305
REMARK  123  A    between atoms: _307  and  _309
REMARK  124  A    between atoms: _309  and  _310
REMARK  125  A    between atoms: _309  and  _312
REMARK  126  A    between atoms: _312  and  _313
REMARK  127  A    between atoms: _315  and  _317
REMARK  128  A    between atoms: _317  and  _318
REMARK  129  A    between atoms: _317  and  _320
REMARK  130  A    between atoms: _320  and  _321
REMARK  131  A    between atoms: _326  and  _327
REMARK  132  A    between atoms: _329  and  _331
REMARK  133  A    between atoms: _331  and  _332
REMARK  134  A    between atoms: _331  and  _334
REMARK  135  A    between atoms: _334  and  _335
REMARK  136  A    between atoms: _335  and  _336
REMARK  137  A    between atoms: _339  and  _341
REMARK  138  A    between atoms: _341  and  _342
REMARK  139  A    between atoms: _341  and  _344
REMARK  140  A    between atoms: _344  and  _345
REMARK  141  A    between atoms: _345  and  _346
REMARK  142  A    between atoms: _346  and  _348
REMARK  143  A    between atoms: _348  and  FE_417
REMARK  144  A    between atoms: _349  and  _351
REMARK  145  A    between atoms: _351  and  _352
REMARK  146  A    between atoms: _355  and  _357
REMARK  147  A    between atoms: _357  and  _358
REMARK  148  A    between atoms: _357  and  _360
REMARK  149  A    between atoms: _360  and  _361
REMARK  150  A    between atoms: _366  and  _368
REMARK  151  A    between atoms: _368  and  _369
REMARK  152  A    between atoms: _368  and  _371
REMARK  153  A    between atoms: _371  and  _372
REMARK  154  A    between atoms: _375  and  _376
REMARK  155  A    between atoms: _381  and  _383
REMARK  156  A    between atoms: _383  and  _384
REMARK  157  A    between atoms: _383  and  _386
REMARK  158  A    between atoms: _386  and  _387
REMARK  159  A    between atoms: _389  and  _391
REMARK  160  A    between atoms: _391  and  _392
REMARK  161  A    between atoms: _391  and  _394
REMARK  162  A    between atoms: _394  and  _395
REMARK  163  A    between atoms: _400  and  _402
REMARK  164  A    between atoms: _402  and  _403
REMARK  165  A    between atoms: _402  and  _405
REMARK  166  A    between atoms: _405  and  _406
REMARK  167  A    between atoms: _406  and  _407
REMARK  168  A    between atoms: _407  and  _408
REMARK                            x       y       z     vdW  Elec       q    Type
REMARK                         _______ _______ _______ _____ _____    ______ ____
ROOT
ATOM      1  CA  MET A   1      20.630 -31.132  76.325  0.00  0.00    +0.134 C 
ENDROOT
BRANCH   1   2
ATOM      2  N   MET A   1      19.585 -30.761  77.253  0.00  0.00    -0.239 NA
ATOM      3  H   MET A   1      19.833 -30.169  78.071  0.00  0.00    +0.142 HD
ENDBRANCH   1   2
BRANCH   1   4
ATOM      4  C   MET A   1      21.196 -32.512  76.597  0.00  0.00    +0.224 C 
ATOM      5  O   MET A   1      21.782 -32.753  77.652  0.00  0.00    -0.287 OA
ENDBRANCH   1   4
BRANCH   1   6
ATOM      6  CB  MET A   1      21.793 -30.138  76.448  0.00  0.00    +0.037 C 
BRANCH   6   7
ATOM      7  CG  MET A   1      21.450 -28.673  76.244  0.00  0.00    +0.059 C 
BRANCH   7   8
ATOM      8  SD  MET A   1      21.315 -28.249  74.513  0.00  0.00    -0.139 S 
ATOM      9  CE  MET A   1      22.978 -27.764  74.133  0.00  0.00    +0.069 C 
ENDBRANCH   7   8
ENDBRANCH   6   7
ENDBRANCH   1   6
TORSDOF 5
REMARK  Name = ../refined-set-2016/1kmy/1kmy_pocket.pdb
REMARK  168 active torsions:
REMARK  status: ('A' for Active; 'I' for Inactive)
REMARK    1  A    between atoms: _1  and  _3
REMARK    2  A    between atoms: _3  and  _4
REMARK    3  A    between atoms: _3  and  _6
REMARK    4  A    between atoms: _6  and  _7
REMARK    5  A    between atoms: _11  and  FE_417
REMARK    6  A    between atoms: _12  and  _14
REMARK    7  A    between atoms: _14  and  _15
REMARK    8  A    between atoms: _14  and  _17
REMARK    9  A    between atoms: _17  and  _18
REMARK   10  A    between atoms: _24  and  _26
REMARK   11  A    between atoms: _26  and  _27
REMARK   12  A    between atoms: _26  and  _29
REMARK   13  A    between atoms: _32  and  _34
REMARK   14  A    between atoms: _34  and  _35
REMARK   15  A    between atoms: _34  and  _37
REMARK   16  A    between atoms: _37  and  _38
REMARK   17  A    between atoms: _38  and  _39
REMARK   18  A    between atoms: _39  and  _40
REMARK   19  A    between atoms: _49  and  _51
REMARK   20  A    between atoms: _51  and  _52
REMARK   21  A    between atoms: _51  and  _54
REMARK   22  A    between atoms: _56  and  _58
REMARK   23  A    between atoms: _58  and  _59
REMARK   24  A    between atoms: _58  and  _61
REMARK   25  A    between atoms: _61  and  _62
REMARK   26  A    between atoms: _65  and  _67
REMARK   27  A    between atoms: _67  and  _68
REMARK   28  A    between atoms: _67  and  _70
REMARK   29  A    between atoms: _70  and  _71
REMARK   30  A    between atoms: _74  and  _76
REMARK   31  A    between atoms: _76  and  _77
REMARK   32  A    between atoms: _76  and  _79
REMARK   33  A    between atoms: _79  and  _80
REMARK   34  A    between atoms: _80  and  _81
REMARK   35  A    between atoms: _83  and  _85
REMARK   36  A    between atoms: _85  and  _86
REMARK   37  A    between atoms: _89  and  _91
REMARK   38  A    between atoms: _91  and  _92
REMARK   39  A    between atoms: _91  and  _94
REMARK   40  A    between atoms: _94  and  _95
REMARK   41  A    between atoms: _100  and  _101
REMARK   42  A    between atoms: _103  and  _105
REMARK   43  A    between atoms: _105  and  _106
REMARK   44  A    between atoms: _105  and  _108
REMARK   45  A    between atoms: _108  and  _109
REMARK   46  A    between atoms: _115  and  _117
REMARK   47  A    between atoms: _117  and  _118
REMARK   48  A    between atoms: _117  and  _120
REMARK   49  A    between atoms: _120  and  _121
REMARK   50  A    between atoms: _126  and  _128
REMARK   51  A    between atoms: _128  and  _129
REMARK   52  A    between atoms: _128  and  _131
REMARK   53  A    between atoms: _131  and  _132
REMARK   54  A    between atoms: _137  and  _139
REMARK   55  A    between atoms: _139  and  _140
REMARK   56  A    between atoms: _143  and  _145
REMARK   57  A    between atoms: _145  and  _146
REMARK   58  A    between atoms: _145  and  _148
REMARK   59  A    between atoms: _148  and  _149
REMARK   60  A    between atoms: _152  and  _154
REMARK   61  A    between atoms: _154  and  _155
REMARK   62  A    between atoms: _158  and  _160
REMARK   63  A    between atoms: _160  and  _161
REMARK   64  A    between atoms: _160  and  _163
REMARK   65  A    between atoms: _163  and  _164
REMARK   66  A    between atoms: _170  and  _172
REMARK   67  A    between atoms: _172  and  _173
REMARK   68  A    between atoms: _172  and  _175
REMARK   69  A    between atoms: _175  and  _176
REMARK   70  A    between atoms: _179  and  _181
REMARK   71  A    between atoms: _181  and  _182
REMARK   72  A    between atoms: _181  and  _184
REMARK   73  A    between atoms: _184  and  _185
REMARK   74  A    between atoms: _190  and  _192
REMARK   75  A    between atoms: _192  and  _193
REMARK   76  A    between atoms: _192  and  _195
REMARK   77  A    between atoms: _195  and  _196
REMARK   78  A    between atoms: _200  and  FE_417
REMARK   79  A    between atoms: _201  and  _203
REMARK   80  A    between atoms: _203  and  _204
REMARK   81  A    between atoms: _203  and  _206
REMARK   82  A    between atoms: _206  and  _207
REMARK   83  A    between atoms: _213  and  _215
REMARK   84  A    between atoms: _215  and  _216
REMARK   85  A    between atoms: _215  and  _218
REMARK   86  A    between atoms: _218  and  _219
REMARK   87  A    between atoms: _219  and  _220
REMARK   88  A    between atoms: _222  and  _224
REMARK   89  A    between atoms: _224  and  _225
REMARK   90  A    between atoms: _224  and  _227
REMARK   91  A    between atoms: _227  and  _228
REMARK   92  A    between atoms: _230  and  _232
REMARK   93  A    between atoms: _232  and  _233
REMARK   94  A    between atoms: _232  and  _235
REMARK   95  A    between atoms: _235  and  _236
REMARK   96  A    between atoms: _236  and  _237
REMARK   97  A    between atoms: _237  and  _238
REMARK   98  A    between atoms: _247  and  _249
REMARK   99  A    between atoms: _249  and  _250
REMARK  100  A    between atoms: _249  and  _252
REMARK  101  A    between atoms: _252  and  _253
REMARK  102  A    between atoms: _258  and  _260
REMARK  103  A    between atoms: _260  and  _261
REMARK  104  A    between atoms: _260  and  _263
REMARK  105  A    between atoms: _263  and  _264
REMARK  106  A    between atoms: _267  and  _269
REMARK  107  A    between atoms: _269  and  _270
REMARK  108  A    between atoms: _269  and  _272
REMARK  109  A    between atoms: _272  and  _273
REMARK  110  A    between atoms: _278  and  _280
REMARK  111  A    between atoms: _280  and  _281
REMARK  112  A    between atoms: _280  and  _283
REMARK  113  A    between atoms: _283  and  _284
REMARK  114  A    between atoms: _287  and  _289
REMARK  115  A    between atoms: _289  and  _290
REMARK  116  A    between atoms: _289  and  _292
REMARK  117  A    between atoms: _292  and  _293
REMARK  118  A    between atoms: _298  and  _300
REMARK  119  A    between atoms: _300  and  _301
REMARK  120  A    between atoms: _300  and  _303
REMARK  121  A    between atoms: _303  and  _304
REMARK  122  A    between atoms: _304  and  _305
REMARK  123  A    between atoms: _307  and  _309
REMARK  124  A    between atoms: _309  and  _310
REMARK  125  A    between atoms: _309  and  _312
REMARK  126  A    between atoms: _312  and  _313
REMARK  127  A    between atoms: _315  and  _317
REMARK  128  A    between atoms: _317  and  _318
REMARK  129  A    between atoms: _317  and  _320
REMARK  130  A    between atoms: _320  and  _321
REMARK  131  A    between atoms: _326  and  _327
REMARK  132  A    between atoms: _329  and  _331
REMARK  133  A    between atoms: _331  and  _332
REMARK  134  A    between atoms: _331  and  _334
REMARK  135  A    between atoms: _334  and  _335
REMARK  136  A    between atoms: _335  and  _336
REMARK  137  A    between atoms: _339  and  _341
REMARK  138  A    between atoms: _341  and  _342
REMARK  139  A    between atoms: _341  and  _344
REMARK  140  A    between atoms: _344  and  _345
REMARK  141  A    between atoms: _345  and  _346
REMARK  142  A    between atoms: _346  and  _348
REMARK  143  A    between atoms: _348  and  FE_417
REMARK  144  A    between atoms: _349  and  _351
REMARK  145  A    between atoms: _351  and  _352
REMARK  146  A    between atoms: _355  and  _357
REMARK  147  A    between atoms: _357  and  _358
REMARK  148  A    between atoms: _357  and  _360
REMARK  149  A    between atoms: _360  and  _361
REMARK  150  A    between atoms: _366  and  _368
REMARK  151  A    between atoms: _368  and  _369
REMARK  152  A    between atoms: _368  and  _371
REMARK  153  A    between atoms: _371  and  _372
REMARK  154  A    between atoms: _375  and  _376
REMARK  155  A    between atoms: _381  and  _383
REMARK  156  A    between atoms: _383  and  _384
REMARK  157  A    between atoms: _383  and  _386
REMARK  158  A    between atoms: _386  and  _387
REMARK  159  A    between atoms: _389  and  _391
REMARK  160  A    between atoms: _391  and  _392
REMARK  161  A    between atoms: _391  and  _394
REMARK  162  A    between atoms: _394  and  _395
REMARK  163  A    between atoms: _400  and  _402
REMARK  164  A    between atoms: _402  and  _403
REMARK  165  A    between atoms: _402  and  _405
REMARK  166  A    between atoms: _405  and  _406
REMARK  167  A    between atoms: _406  and  _407
REMARK  168  A    between atoms: _407  and  _408
REMARK                            x       y       z     vdW  Elec       q    Type
REMARK                         _______ _______ _______ _____ _____    ______ ____
ROOT
ATOM      1  CA  TYR A   2      18.463 -22.310  81.286  0.00  0.00    +0.153 C 
ENDROOT
BRANCH   1   3
ATOM      2  C   ALA A   1      19.253 -24.315  80.153  0.00  0.00    +0.238 C 
ATOM      3  N   TYR A   2      19.502 -23.278  80.942  0.00  0.00    -0.297 N 
ATOM      4  H   TYR A   2      20.460 -23.151  81.325  0.00  0.00    +0.150 HD
ATOM      5  O   ALA A   1      18.118 -24.553  79.720  0.00  0.00    -0.274 OA
BRANCH   2   6
ATOM      6  CA  ALA A   1      20.420 -25.285  79.877  0.00  0.00    +0.145 C 
ATOM      7  CB  ALA A   1      20.862 -25.226  78.421  0.00  0.00    +0.028 C 
BRANCH   6   8
ATOM      8  N   ALA A   1      19.856 -26.587  80.170  0.00  0.00    -0.238 NA
ATOM      9  H   ALA A   1      19.134 -26.972  79.528  0.00  0.00    +0.142 HD
ENDBRANCH   6   8
ENDBRANCH   2   6
ENDBRANCH   1   3
BRANCH   1  10
ATOM     10  C   TYR A   2      18.677 -21.003  80.529  0.00  0.00    +0.241 C 
ATOM     11  O   TYR A   2      19.773 -20.450  80.563  0.00  0.00    -0.273 OA
ATOM     12  N   PHE A   3      17.641 -20.521  79.846  0.00  0.00    -0.298 N 
ATOM     13  H   PHE A   3      16.743 -21.045  79.861  0.00  0.00    +0.150 HD
BRANCH  12  14
ATOM     14  CA  PHE A   3      17.722 -19.272  79.070  0.00  0.00    +0.141 C 
BRANCH  14  15
ATOM     15  C   PHE A   3      16.976 -18.150  79.790  0.00  0.00    +0.227 C 
ATOM     16  O   PHE A   3      15.788 -18.280  80.097  0.00  0.00    -0.286 OA
ENDBRANCH  14  15
BRANCH  14  17
ATOM     17  CB  PHE A   3      17.205 -19.514  77.652  0.00  0.00    +0.054 C 
BRANCH  17  18
ATOM     18  CG  PHE A   3      17.976 -20.576  76.928  0.00  0.00    -0.020 A 
ATOM     19  CD2 PHE A   3      17.750 -21.931  77.205  0.00  0.00    -0.004 A 
ATOM     20  CE2 PHE A   3      18.535 -22.921  76.611  0.00  0.00    -0.000 A 
ATOM     21  CZ  PHE A   3      19.560 -22.557  75.730  0.00  0.00    -0.000 A 
ATOM     22  CE1 PHE A   3      19.790 -21.211  75.443  0.00  0.00    -0.000 A 
ATOM     23  CD1 PHE A   3      18.999 -20.230  76.042  0.00  0.00    -0.004 A 
ENDBRANCH  17  18
ENDBRANCH  14  17
ENDBRANCH  12  14
ENDBRANCH   1  10
BRANCH   1  24
ATOM     24  CB  TYR A   2      18.506 -22.044  82.787  0.00  0.00    +0.055 C 
BRANCH  24  25
ATOM     25  CG  TYR A   2      18.310 -23.289  83.626  0.00  0.00    -0.020 A 
ATOM     26  CD2 TYR A   2      19.400 -24.038  84.077  0.00  0.00    -0.001 A 
ATOM     27  CE2 TYR A   2      19.209 -25.191  84.823  0.00  0.00    +0.036 A 
ATOM     28  CZ  TYR A   2      17.915 -25.597  85.124  0.00  0.00    +0.134 A 
ATOM     29  CE1 TYR A   2      16.830 -24.873  84.687  0.00  0.00    +0.036 A 
ATOM     30  CD1 TYR A   2      17.032 -23.726  83.948  0.00  0.00    -0.001 A 
BRANCH  28  31
ATOM     31  OH  TYR A   2      17.688 -26.724  85.866  0.00  0.00    -0.506 OA
ATOM     32  HH  TYR A   2      18.554 -27.138  86.108  0.00  0.00    +0.292 HD
ENDBRANCH  28  31
ENDBRANCH  24  25
ENDBRANCH   1  24
TORSDOF 11
REMARK  Name = ../refined-set-2016/1kmy/1kmy_pocket.pdb
REMARK  168 active torsions:
REMARK  status: ('A' for Active; 'I' for Inactive)
REMARK    1  A    between atoms: _1  and  _3
REMARK    2  A    between atoms: _3  and  _4
REMARK    3  A    between atoms: _3  and  _6
REMARK    4  A    between atoms: _6  and  _7
REMARK    5  A    between atoms: _11  and  FE_417
REMARK    6  A    between atoms: _12  and  _14
REMARK    7  A    between atoms: _14  and  _15
REMARK    8  A    between atoms: _14  and  _17
REMARK    9  A    between atoms: _17  and  _18
REMARK   10  A    between atoms: _24  and  _26
REMARK   11  A    between atoms: _26  and  _27
REMARK   12  A    between atoms: _26  and  _29
REMARK   13  A    between atoms: _32  and  _34
REMARK   14  A    between atoms: _34  and  _35
REMARK   15  A    between atoms: _34  and  _37
REMARK   16  A    between atoms: _37  and  _38
REMARK   17  A    between atoms: _38  and  _39
REMARK   18  A    between atoms: _39  and  _40
REMARK   19  A    between atoms: _49  and  _51
REMARK   20  A    between atoms: _51  and  _52
REMARK   21  A    between atoms: _51  and  _54
REMARK   22  A    between atoms: _56  and  _58
REMARK   23  A    between atoms: _58  and  _59
REMARK   24  A    between atoms: _58  and  _61
REMARK   25  A    between atoms: _61  and  _62
REMARK   26  A    between atoms: _65  and  _67
REMARK   27  A    between atoms: _67  and  _68
REMARK   28  A    between atoms: _67  and  _70
REMARK   29  A    between atoms: _70  and  _71
REMARK   30  A    between atoms: _74  and  _76
REMARK   31  A    between atoms: _76  and  _77
REMARK   32  A    between atoms: _76  and  _79
REMARK   33  A    between atoms: _79  and  _80
REMARK   34  A    between atoms: _80  and  _81
REMARK   35  A    between atoms: _83  and  _85
REMARK   36  A    between atoms: _85  and  _86
REMARK   37  A    between atoms: _89  and  _91
REMARK   38  A    between atoms: _91  and  _92
REMARK   39  A    between atoms: _91  and  _94
REMARK   40  A    between atoms: _94  and  _95
REMARK   41  A    between atoms: _100  and  _101
REMARK   42  A    between atoms: _103  and  _105
REMARK   43  A    between atoms: _105  and  _106
REMARK   44  A    between atoms: _105  and  _108
REMARK   45  A    between atoms: _108  and  _109
REMARK   46  A    between atoms: _115  and  _117
REMARK   47  A    between atoms: _117  and  _118
REMARK   48  A    between atoms: _117  and  _120
REMARK   49  A    between atoms: _120  and  _121
REMARK   50  A    between atoms: _126  and  _128
REMARK   51  A    between atoms: _128  and  _129
REMARK   52  A    between atoms: _128  and  _131
REMARK   53  A    between atoms: _131  and  _132
REMARK   54  A    between atoms: _137  and  _139
REMARK   55  A    between atoms: _139  and  _140
REMARK   56  A    between atoms: _143  and  _145
REMARK   57  A    between atoms: _145  and  _146
REMARK   58  A    between atoms: _145  and  _148
REMARK   59  A    between atoms: _148  and  _149
REMARK   60  A    between atoms: _152  and  _154
REMARK   61  A    between atoms: _154  and  _155
REMARK   62  A    between atoms: _158  and  _160
REMARK   63  A    between atoms: _160  and  _161
REMARK   64  A    between atoms: _160  and  _163
REMARK   65  A    between atoms: _163  and  _164
REMARK   66  A    between atoms: _170  and  _172
REMARK   67  A    between atoms: _172  and  _173
REMARK   68  A    between atoms: _172  and  _175
REMARK   69  A    between atoms: _175  and  _176
REMARK   70  A    between atoms: _179  and  _181
REMARK   71  A    between atoms: _181  and  _182
REMARK   72  A    between atoms: _181  and  _184
REMARK   73  A    between atoms: _184  and  _185
REMARK   74  A    between atoms: _190  and  _192
REMARK   75  A    between atoms: _192  and  _193
REMARK   76  A    between atoms: _192  and  _195
REMARK   77  A    between atoms: _195  and  _196
REMARK   78  A    between atoms: _200  and  FE_417
REMARK   79  A    between atoms: _201  and  _203
REMARK   80  A    between atoms: _203  and  _204
REMARK   81  A    between atoms: _203  and  _206
REMARK   82  A    between atoms: _206  and  _207
REMARK   83  A    between atoms: _213  and  _215
REMARK   84  A    between atoms: _215  and  _216
REMARK   85  A    between atoms: _215  and  _218
REMARK   86  A    between atoms: _218  and  _219
REMARK   87  A    between atoms: _219  and  _220
REMARK   88  A    between atoms: _222  and  _224
REMARK   89  A    between atoms: _224  and  _225
REMARK   90  A    between atoms: _224  and  _227
REMARK   91  A    between atoms: _227  and  _228
REMARK   92  A    between atoms: _230  and  _232
REMARK   93  A    between atoms: _232  and  _233
REMARK   94  A    between atoms: _232  and  _235
REMARK   95  A    between atoms: _235  and  _236
REMARK   96  A    between atoms: _236  and  _237
REMARK   97  A    between atoms: _237  and  _238
REMARK   98  A    between atoms: _247  and  _249
REMARK   99  A    between atoms: _249  and  _250
REMARK  100  A    between atoms: _249  and  _252
REMARK  101  A    between atoms: _252  and  _253
REMARK  102  A    between atoms: _258  and  _260
REMARK  103  A    between atoms: _260  and  _261
REMARK  104  A    between atoms: _260  and  _263
REMARK  105  A    between atoms: _263  and  _264
REMARK  106  A    between atoms: _267  and  _269
REMARK  107  A    between atoms: _269  and  _270
REMARK  108  A    between atoms: _269  and  _272
REMARK  109  A    between atoms: _272  and  _273
REMARK  110  A    between atoms: _278  and  _280
REMARK  111  A    between atoms: _280  and  _281
REMARK  112  A    between atoms: _280  and  _283
REMARK  113  A    between atoms: _283  and  _284
REMARK  114  A    between atoms: _287  and  _289
REMARK  115  A    between atoms: _289  and  _290
REMARK  116  A    between atoms: _289  and  _292
REMARK  117  A    between atoms: _292  and  _293
REMARK  118  A    between atoms: _298  and  _300
REMARK  119  A    between atoms: _300  and  _301
REMARK  120  A    between atoms: _300  and  _303
REMARK  121  A    between atoms: _303  and  _304
REMARK  122  A    between atoms: _304  and  _305
REMARK  123  A    between atoms: _307  and  _309
REMARK  124  A    between atoms: _309  and  _310
REMARK  125  A    between atoms: _309  and  _312
REMARK  126  A    between atoms: _312  and  _313
REMARK  127  A    between atoms: _315  and  _317
REMARK  128  A    between atoms: _317  and  _318
REMARK  129  A    between atoms: _317  and  _320
REMARK  130  A    between atoms: _320  and  _321
REMARK  131  A    between atoms: _326  and  _327
REMARK  132  A    between atoms: _329  and  _331
REMARK  133  A    between atoms: _331  and  _332
REMARK  134  A    between atoms: _331  and  _334
REMARK  135  A    between atoms: _334  and  _335
REMARK  136  A    between atoms: _335  and  _336
REMARK  137  A    between atoms: _339  and  _341
REMARK  138  A    between atoms: _341  and  _342
REMARK  139  A    between atoms: _341  and  _344
REMARK  140  A    between atoms: _344  and  _345
REMARK  141  A    between atoms: _345  and  _346
REMARK  142  A    between atoms: _346  and  _348
REMARK  143  A    between atoms: _348  and  FE_417
REMARK  144  A    between atoms: _349  and  _351
REMARK  145  A    between atoms: _351  and  _352
REMARK  146  A    between atoms: _355  and  _357
REMARK  147  A    between atoms: _357  and  _358
REMARK  148  A    between atoms: _357  and  _360
REMARK  149  A    between atoms: _360  and  _361
REMARK  150  A    between atoms: _366  and  _368
REMARK  151  A    between atoms: _368  and  _369
REMARK  152  A    between atoms: _368  and  _371
REMARK  153  A    between atoms: _371  and  _372
REMARK  154  A    between atoms: _375  and  _376
REMARK  155  A    between atoms: _381  and  _383
REMARK  156  A    between atoms: _383  and  _384
REMARK  157  A    between atoms: _383  and  _386
REMARK  158  A    between atoms: _386  and  _387
REMARK  159  A    between atoms: _389  and  _391
REMARK  160  A    between atoms: _391  and  _392
REMARK  161  A    between atoms: _391  and  _394
REMARK  162  A    between atoms: _394  and  _395
REMARK  163  A    between atoms: _400  and  _402
REMARK  164  A    between atoms: _402  and  _403
REMARK  165  A    between atoms: _402  and  _405
REMARK  166  A    between atoms: _405  and  _406
REMARK  167  A    between atoms: _406  and  _407
REMARK  168  A    between atoms: _407  and  _408
REMARK                            x       y       z     vdW  Elec       q    Type
REMARK                         _______ _______ _______ _____ _____    ______ ____
ROOT
ATOM      1  C   HIS A   1      15.660 -14.362  75.251  0.00  0.00    +0.239 C 
ATOM      2  O   HIS A   1      15.160 -14.796  76.291  0.00  0.00    -0.274 OA
ATOM      3  N   HIS A   2      16.970 -14.251  75.084  0.00  0.00    -0.298 N 
ATOM      4  H   HIS A   2      17.367 -14.008  74.154  0.00  0.00    +0.150 HD
ENDROOT
BRANCH   1   5
ATOM      5  CA  HIS A   1      14.785 -14.001  74.059  0.00  0.00    +0.151 C 
BRANCH   5   6
ATOM      6  N   HIS A   1      15.162 -12.698  73.485  0.00  0.00    -0.238 NA
ATOM      7  H   HIS A   1      15.220 -12.595  72.452  0.00  0.00    +0.142 HD
ENDBRANCH   5   6
BRANCH   5   8
ATOM      8  CB  HIS A   1      14.787 -15.112  73.008  0.00  0.00    +0.074 C 
BRANCH   8   9
ATOM      9  CG  HIS A   1      14.497 -16.468  73.577  0.00  0.00    +0.082 A 
ATOM     10  ND1 HIS A   1      15.476 -17.272  74.123  0.00  0.00    -0.227 NA
ATOM     11  CE1 HIS A   1      14.930 -18.383  74.577  0.00  0.00    +0.199 A 
ATOM     12  NE2 HIS A   1      13.633 -18.325  74.348  0.00  0.00    -0.221 NA
ATOM     13  CD2 HIS A   1      13.336 -17.141  73.722  0.00  0.00    +0.115 A 
ENDBRANCH   8   9
ENDBRANCH   5   8
ENDBRANCH   1   5
BRANCH   3  14
ATOM     14  CA  HIS A   2      17.840 -14.475  76.223  0.00  0.00    +0.143 C 
BRANCH  14  15
ATOM     15  C   HIS A   2      19.081 -13.631  76.098  0.00  0.00    +0.227 C 
ATOM     16  O   HIS A   2      19.594 -13.426  74.995  0.00  0.00    -0.286 OA
ENDBRANCH  14  15
BRANCH  14  17
ATOM     17  CB  HIS A   2      18.187 -15.960  76.451  0.00  0.00    +0.075 C 
BRANCH  17  18
ATOM     18  CG  HIS A   2      18.985 -16.602  75.357  0.00  0.00    +0.082 A 
ATOM     19  CD2 HIS A   2      20.294 -16.953  75.304  0.00  0.00    +0.115 A 
ATOM     20  NE2 HIS A   2      20.489 -17.604  74.112  0.00  0.00    -0.221 NA
ATOM     21  CE1 HIS A   2      19.347 -17.653  73.451  0.00  0.00    +0.199 A 
ATOM     22  ND1 HIS A   2      18.423 -17.050  74.179  0.00  0.00    -0.227 NA
ENDBRANCH  17  18
ENDBRANCH  14  17
ENDBRANCH   3  14
TORSDOF 8
REMARK  Name = ../refined-set-2016/1kmy/1kmy_pocket.pdb
REMARK  168 active torsions:
REMARK  status: ('A' for Active; 'I' for Inactive)
REMARK    1  A    between atoms: _1  and  _3
REMARK    2  A    between atoms: _3  and  _4
REMARK    3  A    between atoms: _3  and  _6
REMARK    4  A    between atoms: _6  and  _7
REMARK    5  A    between atoms: _11  and  FE_417
REMARK    6  A    between atoms: _12  and  _14
REMARK    7  A    between atoms: _14  and  _15
REMARK    8  A    between atoms: _14  and  _17
REMARK    9  A    between atoms: _17  and  _18
REMARK   10  A    between atoms: _24  and  _26
REMARK   11  A    between atoms: _26  and  _27
REMARK   12  A    between atoms: _26  and  _29
REMARK   13  A    between atoms: _32  and  _34
REMARK   14  A    between atoms: _34  and  _35
REMARK   15  A    between atoms: _34  and  _37
REMARK   16  A    between atoms: _37  and  _38
REMARK   17  A    between atoms: _38  and  _39
REMARK   18  A    between atoms: _39  and  _40
REMARK   19  A    between atoms: _49  and  _51
REMARK   20  A    between atoms: _51  and  _52
REMARK   21  A    between atoms: _51  and  _54
REMARK   22  A    between atoms: _56  and  _58
REMARK   23  A    between atoms: _58  and  _59
REMARK   24  A    between atoms: _58  and  _61
REMARK   25  A    between atoms: _61  and  _62
REMARK   26  A    between atoms: _65  and  _67
REMARK   27  A    between atoms: _67  and  _68
REMARK   28  A    between atoms: _67  and  _70
REMARK   29  A    between atoms: _70  and  _71
REMARK   30  A    between atoms: _74  and  _76
REMARK   31  A    between atoms: _76  and  _77
REMARK   32  A    between atoms: _76  and  _79
REMARK   33  A    between atoms: _79  and  _80
REMARK   34  A    between atoms: _80  and  _81
REMARK   35  A    between atoms: _83  and  _85
REMARK   36  A    between atoms: _85  and  _86
REMARK   37  A    between atoms: _89  and  _91
REMARK   38  A    between atoms: _91  and  _92
REMARK   39  A    between atoms: _91  and  _94
REMARK   40  A    between atoms: _94  and  _95
REMARK   41  A    between atoms: _100  and  _101
REMARK   42  A    between atoms: _103  and  _105
REMARK   43  A    between atoms: _105  and  _106
REMARK   44  A    between atoms: _105  and  _108
REMARK   45  A    between atoms: _108  and  _109
REMARK   46  A    between atoms: _115  and  _117
REMARK   47  A    between atoms: _117  and  _118
REMARK   48  A    between atoms: _117  and  _120
REMARK   49  A    between atoms: _120  and  _121
REMARK   50  A    between atoms: _126  and  _128
REMARK   51  A    between atoms: _128  and  _129
REMARK   52  A    between atoms: _128  and  _131
REMARK   53  A    between atoms: _131  and  _132
REMARK   54  A    between atoms: _137  and  _139
REMARK   55  A    between atoms: _139  and  _140
REMARK   56  A    between atoms: _143  and  _145
REMARK   57  A    between atoms: _145  and  _146
REMARK   58  A    between atoms: _145  and  _148
REMARK   59  A    between atoms: _148  and  _149
REMARK   60  A    between atoms: _152  and  _154
REMARK   61  A    between atoms: _154  and  _155
REMARK   62  A    between atoms: _158  and  _160
REMARK   63  A    between atoms: _160  and  _161
REMARK   64  A    between atoms: _160  and  _163
REMARK   65  A    between atoms: _163  and  _164
REMARK   66  A    between atoms: _170  and  _172
REMARK   67  A    between atoms: _172  and  _173
REMARK   68  A    between atoms: _172  and  _175
REMARK   69  A    between atoms: _175  and  _176
REMARK   70  A    between atoms: _179  and  _181
REMARK   71  A    between atoms: _181  and  _182
REMARK   72  A    between atoms: _181  and  _184
REMARK   73  A    between atoms: _184  and  _185
REMARK   74  A    between atoms: _190  and  _192
REMARK   75  A    between atoms: _192  and  _193
REMARK   76  A    between atoms: _192  and  _195
REMARK   77  A    between atoms: _195  and  _196
REMARK   78  A    between atoms: _200  and  FE_417
REMARK   79  A    between atoms: _201  and  _203
REMARK   80  A    between atoms: _203  and  _204
REMARK   81  A    between atoms: _203  and  _206
REMARK   82  A    between atoms: _206  and  _207
REMARK   83  A    between atoms: _213  and  _215
REMARK   84  A    between atoms: _215  and  _216
REMARK   85  A    between atoms: _215  and  _218
REMARK   86  A    between atoms: _218  and  _219
REMARK   87  A    between atoms: _219  and  _220
REMARK   88  A    between atoms: _222  and  _224
REMARK   89  A    between atoms: _224  and  _225
REMARK   90  A    between atoms: _224  and  _227
REMARK   91  A    between atoms: _227  and  _228
REMARK   92  A    between atoms: _230  and  _232
REMARK   93  A    between atoms: _232  and  _233
REMARK   94  A    between atoms: _232  and  _235
REMARK   95  A    between atoms: _235  and  _236
REMARK   96  A    between atoms: _236  and  _237
REMARK   97  A    between atoms: _237  and  _238
REMARK   98  A    between atoms: _247  and  _249
REMARK   99  A    between atoms: _249  and  _250
REMARK  100  A    between atoms: _249  and  _252
REMARK  101  A    between atoms: _252  and  _253
REMARK  102  A    between atoms: _258  and  _260
REMARK  103  A    between atoms: _260  and  _261
REMARK  104  A    between atoms: _260  and  _263
REMARK  105  A    between atoms: _263  and  _264
REMARK  106  A    between atoms: _267  and  _269
REMARK  107  A    between atoms: _269  and  _270
REMARK  108  A    between atoms: _269  and  _272
REMARK  109  A    between atoms: _272  and  _273
REMARK  110  A    between atoms: _278  and  _280
REMARK  111  A    between atoms: _280  and  _281
REMARK  112  A    between atoms: _280  and  _283
REMARK  113  A    between atoms: _283  and  _284
REMARK  114  A    between atoms: _287  and  _289
REMARK  115  A    between atoms: _289  and  _290
REMARK  116  A    between atoms: _289  and  _292
REMARK  117  A    between atoms: _292  and  _293
REMARK  118  A    between atoms: _298  and  _300
REMARK  119  A    between atoms: _300  and  _301
REMARK  120  A    between atoms: _300  and  _303
REMARK  121  A    between atoms: _303  and  _304
REMARK  122  A    between atoms: _304  and  _305
REMARK  123  A    between atoms: _307  and  _309
REMARK  124  A    between atoms: _309  and  _310
REMARK  125  A    between atoms: _309  and  _312
REMARK  126  A    between atoms: _312  and  _313
REMARK  127  A    between atoms: _315  and  _317
REMARK  128  A    between atoms: _317  and  _318
REMARK  129  A    between atoms: _317  and  _320
REMARK  130  A    between atoms: _320  and  _321
REMARK  131  A    between atoms: _326  and  _327
REMARK  132  A    between atoms: _329  and  _331
REMARK  133  A    between atoms: _331  and  _332
REMARK  134  A    between atoms: _331  and  _334
REMARK  135  A    between atoms: _334  and  _335
REMARK  136  A    between atoms: _335  and  _336
REMARK  137  A    between atoms: _339  and  _341
REMARK  138  A    between atoms: _341  and  _342
REMARK  139  A    between atoms: _341  and  _344
REMARK  140  A    between atoms: _344  and  _345
REMARK  141  A    between atoms: _345  and  _346
REMARK  142  A    between atoms: _346  and  _348
REMARK  143  A    between atoms: _348  and  FE_417
REMARK  144  A    between atoms: _349  and  _351
REMARK  145  A    between atoms: _351  and  _352
REMARK  146  A    between atoms: _355  and  _357
REMARK  147  A    between atoms: _357  and  _358
REMARK  148  A    between atoms: _357  and  _360
REMARK  149  A    between atoms: _360  and  _361
REMARK  150  A    between atoms: _366  and  _368
REMARK  151  A    between atoms: _368  and  _369
REMARK  152  A    between atoms: _368  and  _371
REMARK  153  A    between atoms: _371  and  _372
REMARK  154  A    between atoms: _375  and  _376
REMARK  155  A    between atoms: _381  and  _383
REMARK  156  A    between atoms: _383  and  _384
REMARK  157  A    between atoms: _383  and  _386
REMARK  158  A    between atoms: _386  and  _387
REMARK  159  A    between atoms: _389  and  _391
REMARK  160  A    between atoms: _391  and  _392
REMARK  161  A    between atoms: _391  and  _394
REMARK  162  A    between atoms: _394  and  _395
REMARK  163  A    between atoms: _400  and  _402
REMARK  164  A    between atoms: _402  and  _403
REMARK  165  A    between atoms: _402  and  _405
REMARK  166  A    between atoms: _405  and  _406
REMARK  167  A    between atoms: _406  and  _407
REMARK  168  A    between atoms: _407  and  _408
REMARK                            x       y       z     vdW  Elec       q    Type
REMARK                         _______ _______ _______ _____ _____    ______ ____
ROOT
ATOM      1  CA  ILE A   2      23.319 -21.099  82.195  0.00  0.00    +0.148 C 
ENDROOT
BRANCH   1   3
ATOM      2  C   ALA A   1      22.980 -19.485  80.393  0.00  0.00    +0.238 C 
ATOM      3  N   ILE A   2      22.499 -20.435  81.187  0.00  0.00    -0.297 N 
ATOM      4  H   ILE A   2      21.503 -20.716  81.087  0.00  0.00    +0.150 HD
ATOM      5  O   ALA A   1      24.137 -19.071  80.487  0.00  0.00    -0.274 OA
BRANCH   2   6
ATOM      6  CA  ALA A   1      22.002 -18.856  79.385  0.00  0.00    +0.145 C 
ATOM      7  CB  ALA A   1      22.083 -19.556  78.039  0.00  0.00    +0.028 C 
BRANCH   6   8
ATOM      8  N   ALA A   1      22.426 -17.465  79.289  0.00  0.00    -0.238 NA
ATOM      9  H   ALA A   1      23.424 -17.256  79.082  0.00  0.00    +0.142 HD
ENDBRANCH   6   8
ENDBRANCH   2   6
ENDBRANCH   1   3
BRANCH   1  10
ATOM     10  C   ILE A   2      23.249 -22.610  81.985  0.00  0.00    +0.241 C 
ATOM     11  N   ALA A   3      24.401 -23.271  81.998  0.00  0.00    -0.298 N 
ATOM     12  H   ALA A   3      25.287 -22.742  82.124  0.00  0.00    +0.150 HD
ATOM     13  O   ILE A   2      22.174 -23.158  81.760  0.00  0.00    -0.273 OA
BRANCH  11  14
ATOM     14  CA  ALA A   3      24.455 -24.724  81.839  0.00  0.00    +0.137 C 
ATOM     15  CB  ALA A   3      24.460 -25.105  80.369  0.00  0.00    +0.030 C 
BRANCH  14  16
ATOM     16  C   ALA A   3      25.709 -25.278  82.530  0.00  0.00    +0.227 C 
ATOM     17  O   ALA A   3      26.756 -24.619  82.570  0.00  0.00    -0.286 OA
ENDBRANCH  14  16
ENDBRANCH  11  14
ENDBRANCH   1  10
BRANCH   1  18
ATOM     18  CB  ILE A   2      22.810 -20.750  83.618  0.00  0.00    +0.027 C 
ATOM     19  CG2 ILE A   2      23.492 -21.612  84.657  0.00  0.00    +0.002 C 
BRANCH  18  20
ATOM     20  CG1 ILE A   2      23.077 -19.278  83.932  0.00  0.00    +0.002 C 
ATOM     21  CD1 ILE A   2      22.339 -18.777  85.143  0.00  0.00    +0.000 C 
ENDBRANCH  18  20
ENDBRANCH   1  18
TORSDOF 8
REMARK  Name = ../refined-set-2016/1kmy/1kmy_pocket.pdb
REMARK  168 active torsions:
REMARK  status: ('A' for Active; 'I' for Inactive)
REMARK    1  A    between atoms: _1  and  _3
REMARK    2  A    between atoms: _3  and  _4
REMARK    3  A    between atoms: _3  and  _6
REMARK    4  A    between atoms: _6  and  _7
REMARK    5  A    between atoms: _11  and  FE_417
REMARK    6  A    between atoms: _12  and  _14
REMARK    7  A    between atoms: _14  and  _15
REMARK    8  A    between atoms: _14  and  _17
REMARK    9  A    between atoms: _17  and  _18
REMARK   10  A    between atoms: _24  and  _26
REMARK   11  A    between atoms: _26  and  _27
REMARK   12  A    between atoms: _26  and  _29
REMARK   13  A    between atoms: _32  and  _34
REMARK   14  A    between atoms: _34  and  _35
REMARK   15  A    between atoms: _34  and  _37
REMARK   16  A    between atoms: _37  and  _38
REMARK   17  A    between atoms: _38  and  _39
REMARK   18  A    between atoms: _39  and  _40
REMARK   19  A    between atoms: _49  and  _51
REMARK   20  A    between atoms: _51  and  _52
REMARK   21  A    between atoms: _51  and  _54
REMARK   22  A    between atoms: _56  and  _58
REMARK   23  A    between atoms: _58  and  _59
REMARK   24  A    between atoms: _58  and  _61
REMARK   25  A    between atoms: _61  and  _62
REMARK   26  A    between atoms: _65  and  _67
REMARK   27  A    between atoms: _67  and  _68
REMARK   28  A    between atoms: _67  and  _70
REMARK   29  A    between atoms: _70  and  _71
REMARK   30  A    between atoms: _74  and  _76
REMARK   31  A    between atoms: _76  and  _77
REMARK   32  A    between atoms: _76  and  _79
REMARK   33  A    between atoms: _79  and  _80
REMARK   34  A    between atoms: _80  and  _81
REMARK   35  A    between atoms: _83  and  _85
REMARK   36  A    between atoms: _85  and  _86
REMARK   37  A    between atoms: _89  and  _91
REMARK   38  A    between atoms: _91  and  _92
REMARK   39  A    between atoms: _91  and  _94
REMARK   40  A    between atoms: _94  and  _95
REMARK   41  A    between atoms: _100  and  _101
REMARK   42  A    between atoms: _103  and  _105
REMARK   43  A    between atoms: _105  and  _106
REMARK   44  A    between atoms: _105  and  _108
REMARK   45  A    between atoms: _108  and  _109
REMARK   46  A    between atoms: _115  and  _117
REMARK   47  A    between atoms: _117  and  _118
REMARK   48  A    between atoms: _117  and  _120
REMARK   49  A    between atoms: _120  and  _121
REMARK   50  A    between atoms: _126  and  _128
REMARK   51  A    between atoms: _128  and  _129
REMARK   52  A    between atoms: _128  and  _131
REMARK   53  A    between atoms: _131  and  _132
REMARK   54  A    between atoms: _137  and  _139
REMARK   55  A    between atoms: _139  and  _140
REMARK   56  A    between atoms: _143  and  _145
REMARK   57  A    between atoms: _145  and  _146
REMARK   58  A    between atoms: _145  and  _148
REMARK   59  A    between atoms: _148  and  _149
REMARK   60  A    between atoms: _152  and  _154
REMARK   61  A    between atoms: _154  and  _155
REMARK   62  A    between atoms: _158  and  _160
REMARK   63  A    between atoms: _160  and  _161
REMARK   64  A    between atoms: _160  and  _163
REMARK   65  A    between atoms: _163  and  _164
REMARK   66  A    between atoms: _170  and  _172
REMARK   67  A    between atoms: _172  and  _173
REMARK   68  A    between atoms: _172  and  _175
REMARK   69  A    between atoms: _175  and  _176
REMARK   70  A    between atoms: _179  and  _181
REMARK   71  A    between atoms: _181  and  _182
REMARK   72  A    between atoms: _181  and  _184
REMARK   73  A    between atoms: _184  and  _185
REMARK   74  A    between atoms: _190  and  _192
REMARK   75  A    between atoms: _192  and  _193
REMARK   76  A    between atoms: _192  and  _195
REMARK   77  A    between atoms: _195  and  _196
REMARK   78  A    between atoms: _200  and  FE_417
REMARK   79  A    between atoms: _201  and  _203
REMARK   80  A    between atoms: _203  and  _204
REMARK   81  A    between atoms: _203  and  _206
REMARK   82  A    between atoms: _206  and  _207
REMARK   83  A    between atoms: _213  and  _215
REMARK   84  A    between atoms: _215  and  _216
REMARK   85  A    between atoms: _215  and  _218
REMARK   86  A    between atoms: _218  and  _219
REMARK   87  A    between atoms: _219  and  _220
REMARK   88  A    between atoms: _222  and  _224
REMARK   89  A    between atoms: _224  and  _225
REMARK   90  A    between atoms: _224  and  _227
REMARK   91  A    between atoms: _227  and  _228
REMARK   92  A    between atoms: _230  and  _232
REMARK   93  A    between atoms: _232  and  _233
REMARK   94  A    between atoms: _232  and  _235
REMARK   95  A    between atoms: _235  and  _236
REMARK   96  A    between atoms: _236  and  _237
REMARK   97  A    between atoms: _237  and  _238
REMARK   98  A    between atoms: _247  and  _249
REMARK   99  A    between atoms: _249  and  _250
REMARK  100  A    between atoms: _249  and  _252
REMARK  101  A    between atoms: _252  and  _253
REMARK  102  A    between atoms: _258  and  _260
REMARK  103  A    between atoms: _260  and  _261
REMARK  104  A    between atoms: _260  and  _263
REMARK  105  A    between atoms: _263  and  _264
REMARK  106  A    between atoms: _267  and  _269
REMARK  107  A    between atoms: _269  and  _270
REMARK  108  A    between atoms: _269  and  _272
REMARK  109  A    between atoms: _272  and  _273
REMARK  110  A    between atoms: _278  and  _280
REMARK  111  A    between atoms: _280  and  _281
REMARK  112  A    between atoms: _280  and  _283
REMARK  113  A    between atoms: _283  and  _284
REMARK  114  A    between atoms: _287  and  _289
REMARK  115  A    between atoms: _289  and  _290
REMARK  116  A    between atoms: _289  and  _292
REMARK  117  A    between atoms: _292  and  _293
REMARK  118  A    between atoms: _298  and  _300
REMARK  119  A    between atoms: _300  and  _301
REMARK  120  A    between atoms: _300  and  _303
REMARK  121  A    between atoms: _303  and  _304
REMARK  122  A    between atoms: _304  and  _305
REMARK  123  A    between atoms: _307  and  _309
REMARK  124  A    between atoms: _309  and  _310
REMARK  125  A    between atoms: _309  and  _312
REMARK  126  A    between atoms: _312  and  _313
REMARK  127  A    between atoms: _315  and  _317
REMARK  128  A    between atoms: _317  and  _318
REMARK  129  A    between atoms: _317  and  _320
REMARK  130  A    between atoms: _320  and  _321
REMARK  131  A    between atoms: _326  and  _327
REMARK  132  A    between atoms: _329  and  _331
REMARK  133  A    between atoms: _331  and  _332
REMARK  134  A    between atoms: _331  and  _334
REMARK  135  A    between atoms: _334  and  _335
REMARK  136  A    between atoms: _335  and  _336
REMARK  137  A    between atoms: _339  and  _341
REMARK  138  A    between atoms: _341  and  _342
REMARK  139  A    between atoms: _341  and  _344
REMARK  140  A    between atoms: _344  and  _345
REMARK  141  A    between atoms: _345  and  _346
REMARK  142  A    between atoms: _346  and  _348
REMARK  143  A    between atoms: _348  and  FE_417
REMARK  144  A    between atoms: _349  and  _351
REMARK  145  A    between atoms: _351  and  _352
REMARK  146  A    between atoms: _355  and  _357
REMARK  147  A    between atoms: _357  and  _358
REMARK  148  A    between atoms: _357  and  _360
REMARK  149  A    between atoms: _360  and  _361
REMARK  150  A    between atoms: _366  and  _368
REMARK  151  A    between atoms: _368  and  _369
REMARK  152  A    between atoms: _368  and  _371
REMARK  153  A    between atoms: _371  and  _372
REMARK  154  A    between atoms: _375  and  _376
REMARK  155  A    between atoms: _381  and  _383
REMARK  156  A    between atoms: _383  and  _384
REMARK  157  A    between atoms: _383  and  _386
REMARK  158  A    between atoms: _386  and  _387
REMARK  159  A    between atoms: _389  and  _391
REMARK  160  A    between atoms: _391  and  _392
REMARK  161  A    between atoms: _391  and  _394
REMARK  162  A    between atoms: _394  and  _395
REMARK  163  A    between atoms: _400  and  _402
REMARK  164  A    between atoms: _402  and  _403
REMARK  165  A    between atoms: _402  and  _405
REMARK  166  A    between atoms: _405  and  _406
REMARK  167  A    between atoms: _406  and  _407
REMARK  168  A    between atoms: _407  and  _408
REMARK                            x       y       z     vdW  Elec       q    Type
REMARK                         _______ _______ _______ _____ _____    ______ ____
ROOT
ATOM      1  CB  PHE A   1      28.992 -27.383  79.455  0.00  0.00    +0.051 C 
ENDROOT
BRANCH   1   2
ATOM      2  CG  PHE A   1      27.683 -27.285  78.754  0.00  0.00    -0.020 A 
ATOM      3  CD2 PHE A   1      26.746 -28.308  78.851  0.00  0.00    -0.004 A 
ATOM      4  CE2 PHE A   1      25.521 -28.220  78.204  0.00  0.00    -0.000 A 
ATOM      5  CZ  PHE A   1      25.225 -27.098  77.447  0.00  0.00    -0.000 A 
ATOM      6  CE1 PHE A   1      26.161 -26.064  77.342  0.00  0.00    -0.000 A 
ATOM      7  CD1 PHE A   1      27.383 -26.165  77.995  0.00  0.00    -0.004 A 
ENDBRANCH   1   2
BRANCH   1   8
ATOM      8  CA  PHE A   1      28.925 -28.113  80.796  0.00  0.00    +0.137 C 
BRANCH   8   9
ATOM      9  N   PHE A   1      28.164 -27.357  81.796  0.00  0.00    -0.239 NA
ATOM     10  H   PHE A   1      28.160 -26.318  81.752  0.00  0.00    +0.142 HD
ENDBRANCH   8   9
BRANCH   8  11
ATOM     11  C   PHE A   1      30.345 -28.286  81.269  0.00  0.00    +0.224 C 
ATOM     12  O   PHE A   1      30.877 -27.434  81.973  0.00  0.00    -0.287 OA
ENDBRANCH   8  11
ENDBRANCH   1   8
TORSDOF 4
REMARK  Name = ../refined-set-2016/1kmy/1kmy_pocket.pdb
REMARK  168 active torsions:
REMARK  status: ('A' for Active; 'I' for Inactive)
REMARK    1  A    between atoms: _1  and  _3
REMARK    2  A    between atoms: _3  and  _4
REMARK    3  A    between atoms: _3  and  _6
REMARK    4  A    between atoms: _6  and  _7
REMARK    5  A    between atoms: _11  and  FE_417
REMARK    6  A    between atoms: _12  and  _14
REMARK    7  A    between atoms: _14  and  _15
REMARK    8  A    between atoms: _14  and  _17
REMARK    9  A    between atoms: _17  and  _18
REMARK   10  A    between atoms: _24  and  _26
REMARK   11  A    between atoms: _26  and  _27
REMARK   12  A    between atoms: _26  and  _29
REMARK   13  A    between atoms: _32  and  _34
REMARK   14  A    between atoms: _34  and  _35
REMARK   15  A    between atoms: _34  and  _37
REMARK   16  A    between atoms: _37  and  _38
REMARK   17  A    between atoms: _38  and  _39
REMARK   18  A    between atoms: _39  and  _40
REMARK   19  A    between atoms: _49  and  _51
REMARK   20  A    between atoms: _51  and  _52
REMARK   21  A    between atoms: _51  and  _54
REMARK   22  A    between atoms: _56  and  _58
REMARK   23  A    between atoms: _58  and  _59
REMARK   24  A    between atoms: _58  and  _61
REMARK   25  A    between atoms: _61  and  _62
REMARK   26  A    between atoms: _65  and  _67
REMARK   27  A    between atoms: _67  and  _68
REMARK   28  A    between atoms: _67  and  _70
REMARK   29  A    between atoms: _70  and  _71
REMARK   30  A    between atoms: _74  and  _76
REMARK   31  A    between atoms: _76  and  _77
REMARK   32  A    between atoms: _76  and  _79
REMARK   33  A    between atoms: _79  and  _80
REMARK   34  A    between atoms: _80  and  _81
REMARK   35  A    between atoms: _83  and  _85
REMARK   36  A    between atoms: _85  and  _86
REMARK   37  A    between atoms: _89  and  _91
REMARK   38  A    between atoms: _91  and  _92
REMARK   39  A    between atoms: _91  and  _94
REMARK   40  A    between atoms: _94  and  _95
REMARK   41  A    between atoms: _100  and  _101
REMARK   42  A    between atoms: _103  and  _105
REMARK   43  A    between atoms: _105  and  _106
REMARK   44  A    between atoms: _105  and  _108
REMARK   45  A    between atoms: _108  and  _109
REMARK   46  A    between atoms: _115  and  _117
REMARK   47  A    between atoms: _117  and  _118
REMARK   48  A    between atoms: _117  and  _120
REMARK   49  A    between atoms: _120  and  _121
REMARK   50  A    between atoms: _126  and  _128
REMARK   51  A    between atoms: _128  and  _129
REMARK   52  A    between atoms: _128  and  _131
REMARK   53  A    between atoms: _131  and  _132
REMARK   54  A    between atoms: _137  and  _139
REMARK   55  A    between atoms: _139  and  _140
REMARK   56  A    between atoms: _143  and  _145
REMARK   57  A    between atoms: _145  and  _146
REMARK   58  A    between atoms: _145  and  _148
REMARK   59  A    between atoms: _148  and  _149
REMARK   60  A    between atoms: _152  and  _154
REMARK   61  A    between atoms: _154  and  _155
REMARK   62  A    between atoms: _158  and  _160
REMARK   63  A    between atoms: _160  and  _161
REMARK   64  A    between atoms: _160  and  _163
REMARK   65  A    between atoms: _163  and  _164
REMARK   66  A    between atoms: _170  and  _172
REMARK   67  A    between atoms: _172  and  _173
REMARK   68  A    between atoms: _172  and  _175
REMARK   69  A    between atoms: _175  and  _176
REMARK   70  A    between atoms: _179  and  _181
REMARK   71  A    between atoms: _181  and  _182
REMARK   72  A    between atoms: _181  and  _184
REMARK   73  A    between atoms: _184  and  _185
REMARK   74  A    between atoms: _190  and  _192
REMARK   75  A    between atoms: _192  and  _193
REMARK   76  A    between atoms: _192  and  _195
REMARK   77  A    between atoms: _195  and  _196
REMARK   78  A    between atoms: _200  and  FE_417
REMARK   79  A    between atoms: _201  and  _203
REMARK   80  A    between atoms: _203  and  _204
REMARK   81  A    between atoms: _203  and  _206
REMARK   82  A    between atoms: _206  and  _207
REMARK   83  A    between atoms: _213  and  _215
REMARK   84  A    between atoms: _215  and  _216
REMARK   85  A    between atoms: _215  and  _218
REMARK   86  A    between atoms: _218  and  _219
REMARK   87  A    between atoms: _219  and  _220
REMARK   88  A    between atoms: _222  and  _224
REMARK   89  A    between atoms: _224  and  _225
REMARK   90  A    between atoms: _224  and  _227
REMARK   91  A    between atoms: _227  and  _228
REMARK   92  A    between atoms: _230  and  _232
REMARK   93  A    between atoms: _232  and  _233
REMARK   94  A    between atoms: _232  and  _235
REMARK   95  A    between atoms: _235  and  _236
REMARK   96  A    between atoms: _236  and  _237
REMARK   97  A    between atoms: _237  and  _238
REMARK   98  A    between atoms: _247  and  _249
REMARK   99  A    between atoms: _249  and  _250
REMARK  100  A    between atoms: _249  and  _252
REMARK  101  A    between atoms: _252  and  _253
REMARK  102  A    between atoms: _258  and  _260
REMARK  103  A    between atoms: _260  and  _261
REMARK  104  A    between atoms: _260  and  _263
REMARK  105  A    between atoms: _263  and  _264
REMARK  106  A    between atoms: _267  and  _269
REMARK  107  A    between atoms: _269  and  _270
REMARK  108  A    between atoms: _269  and  _272
REMARK  109  A    between atoms: _272  and  _273
REMARK  110  A    between atoms: _278  and  _280
REMARK  111  A    between atoms: _280  and  _281
REMARK  112  A    between atoms: _280  and  _283
REMARK  113  A    between atoms: _283  and  _284
REMARK  114  A    between atoms: _287  and  _289
REMARK  115  A    between atoms: _289  and  _290
REMARK  116  A    between atoms: _289  and  _292
REMARK  117  A    between atoms: _292  and  _293
REMARK  118  A    between atoms: _298  and  _300
REMARK  119  A    between atoms: _300  and  _301
REMARK  120  A    between atoms: _300  and  _303
REMARK  121  A    between atoms: _303  and  _304
REMARK  122  A    between atoms: _304  and  _305
REMARK  123  A    between atoms: _307  and  _309
REMARK  124  A    between atoms: _309  and  _310
REMARK  125  A    between atoms: _309  and  _312
REMARK  126  A    between atoms: _312  and  _313
REMARK  127  A    between atoms: _315  and  _317
REMARK  128  A    between atoms: _317  and  _318
REMARK  129  A    between atoms: _317  and  _320
REMARK  130  A    between atoms: _320  and  _321
REMARK  131  A    between atoms: _326  and  _327
REMARK  132  A    between atoms: _329  and  _331
REMARK  133  A    between atoms: _331  and  _332
REMARK  134  A    between atoms: _331  and  _334
REMARK  135  A    between atoms: _334  and  _335
REMARK  136  A    between atoms: _335  and  _336
REMARK  137  A    between atoms: _339  and  _341
REMARK  138  A    between atoms: _341  and  _342
REMARK  139  A    between atoms: _341  and  _344
REMARK  140  A    between atoms: _344  and  _345
REMARK  141  A    between atoms: _345  and  _346
REMARK  142  A    between atoms: _346  and  _348
REMARK  143  A    between atoms: _348  and  FE_417
REMARK  144  A    between atoms: _349  and  _351
REMARK  145  A    between atoms: _351  and  _352
REMARK  146  A    between atoms: _355  and  _357
REMARK  147  A    between atoms: _357  and  _358
REMARK  148  A    between atoms: _357  and  _360
REMARK  149  A    between atoms: _360  and  _361
REMARK  150  A    between atoms: _366  and  _368
REMARK  151  A    between atoms: _368  and  _369
REMARK  152  A    between atoms: _368  and  _371
REMARK  153  A    between atoms: _371  and  _372
REMARK  154  A    between atoms: _375  and  _376
REMARK  155  A    between atoms: _381  and  _383
REMARK  156  A    between atoms: _383  and  _384
REMARK  157  A    between atoms: _383  and  _386
REMARK  158  A    between atoms: _386  and  _387
REMARK  159  A    between atoms: _389  and  _391
REMARK  160  A    between atoms: _391  and  _392
REMARK  161  A    between atoms: _391  and  _394
REMARK  162  A    between atoms: _394  and  _395
REMARK  163  A    between atoms: _400  and  _402
REMARK  164  A    between atoms: _402  and  _403
REMARK  165  A    between atoms: _402  and  _405
REMARK  166  A    between atoms: _405  and  _406
REMARK  167  A    between atoms: _406  and  _407
REMARK  168  A    between atoms: _407  and  _408
REMARK                            x       y       z     vdW  Elec       q    Type
REMARK                         _______ _______ _______ _____ _____    ______ ____
ROOT
ATOM      1  CA  LEU A   1      34.392 -26.879  79.596  0.00  0.00    +0.133 C 
ENDROOT
BRANCH   1   2
ATOM      2  N   LEU A   1      33.474 -27.633  80.447  0.00  0.00    -0.239 NA
ATOM      3  H   LEU A   1      32.894 -27.124  81.144  0.00  0.00    +0.142 HD
ENDBRANCH   1   2
BRANCH   1   4
ATOM      4  C   LEU A   1      35.351 -26.127  80.486  0.00  0.00    +0.224 C 
ATOM      5  O   LEU A   1      34.992 -25.728  81.585  0.00  0.00    -0.287 OA
ENDBRANCH   1   4
BRANCH   1   6
ATOM      6  CB  LEU A   1      33.645 -25.843  78.753  0.00  0.00    +0.025 C 
BRANCH   6   7
ATOM      7  CG  LEU A   1      32.604 -26.268  77.733  0.00  0.00    +0.002 C 
ATOM      8  CD2 LEU A   1      32.000 -25.009  77.133  0.00  0.00    +0.000 C 
ATOM      9  CD1 LEU A   1      33.239 -27.133  76.661  0.00  0.00    +0.000 C 
ENDBRANCH   6   7
ENDBRANCH   1   6
TORSDOF 4
REMARK  Name = ../refined-set-2016/1kmy/1kmy_pocket.pdb
REMARK  168 active torsions:
REMARK  status: ('A' for Active; 'I' for Inactive)
REMARK    1  A    between atoms: _1  and  _3
REMARK    2  A    between atoms: _3  and  _4
REMARK    3  A    between atoms: _3  and  _6
REMARK    4  A    between atoms: _6  and  _7
REMARK    5  A    between atoms: _11  and  FE_417
REMARK    6  A    between atoms: _12  and  _14
REMARK    7  A    between atoms: _14  and  _15
REMARK    8  A    between atoms: _14  and  _17
REMARK    9  A    between atoms: _17  and  _18
REMARK   10  A    between atoms: _24  and  _26
REMARK   11  A    between atoms: _26  and  _27
REMARK   12  A    between atoms: _26  and  _29
REMARK   13  A    between atoms: _32  and  _34
REMARK   14  A    between atoms: _34  and  _35
REMARK   15  A    between atoms: _34  and  _37
REMARK   16  A    between atoms: _37  and  _38
REMARK   17  A    between atoms: _38  and  _39
REMARK   18  A    between atoms: _39  and  _40
REMARK   19  A    between atoms: _49  and  _51
REMARK   20  A    between atoms: _51  and  _52
REMARK   21  A    between atoms: _51  and  _54
REMARK   22  A    between atoms: _56  and  _58
REMARK   23  A    between atoms: _58  and  _59
REMARK   24  A    between atoms: _58  and  _61
REMARK   25  A    between atoms: _61  and  _62
REMARK   26  A    between atoms: _65  and  _67
REMARK   27  A    between atoms: _67  and  _68
REMARK   28  A    between atoms: _67  and  _70
REMARK   29  A    between atoms: _70  and  _71
REMARK   30  A    between atoms: _74  and  _76
REMARK   31  A    between atoms: _76  and  _77
REMARK   32  A    between atoms: _76  and  _79
REMARK   33  A    between atoms: _79  and  _80
REMARK   34  A    between atoms: _80  and  _81
REMARK   35  A    between atoms: _83  and  _85
REMARK   36  A    between atoms: _85  and  _86
REMARK   37  A    between atoms: _89  and  _91
REMARK   38  A    between atoms: _91  and  _92
REMARK   39  A    between atoms: _91  and  _94
REMARK   40  A    between atoms: _94  and  _95
REMARK   41  A    between atoms: _100  and  _101
REMARK   42  A    between atoms: _103  and  _105
REMARK   43  A    between atoms: _105  and  _106
REMARK   44  A    between atoms: _105  and  _108
REMARK   45  A    between atoms: _108  and  _109
REMARK   46  A    between atoms: _115  and  _117
REMARK   47  A    between atoms: _117  and  _118
REMARK   48  A    between atoms: _117  and  _120
REMARK   49  A    between atoms: _120  and  _121
REMARK   50  A    between atoms: _126  and  _128
REMARK   51  A    between atoms: _128  and  _129
REMARK   52  A    between atoms: _128  and  _131
REMARK   53  A    between atoms: _131  and  _132
REMARK   54  A    between atoms: _137  and  _139
REMARK   55  A    between atoms: _139  and  _140
REMARK   56  A    between atoms: _143  and  _145
REMARK   57  A    between atoms: _145  and  _146
REMARK   58  A    between atoms: _145  and  _148
REMARK   59  A    between atoms: _148  and  _149
REMARK   60  A    between atoms: _152  and  _154
REMARK   61  A    between atoms: _154  and  _155
REMARK   62  A    between atoms: _158  and  _160
REMARK   63  A    between atoms: _160  and  _161
REMARK   64  A    between atoms: _160  and  _163
REMARK   65  A    between atoms: _163  and  _164
REMARK   66  A    between atoms: _170  and  _172
REMARK   67  A    between atoms: _172  and  _173
REMARK   68  A    between atoms: _172  and  _175
REMARK   69  A    between atoms: _175  and  _176
REMARK   70  A    between atoms: _179  and  _181
REMARK   71  A    between atoms: _181  and  _182
REMARK   72  A    between atoms: _181  and  _184
REMARK   73  A    between atoms: _184  and  _185
REMARK   74  A    between atoms: _190  and  _192
REMARK   75  A    between atoms: _192  and  _193
REMARK   76  A    between atoms: _192  and  _195
REMARK   77  A    between atoms: _195  and  _196
REMARK   78  A    between atoms: _200  and  FE_417
REMARK   79  A    between atoms: _201  and  _203
REMARK   80  A    between atoms: _203  and  _204
REMARK   81  A    between atoms: _203  and  _206
REMARK   82  A    between atoms: _206  and  _207
REMARK   83  A    between atoms: _213  and  _215
REMARK   84  A    between atoms: _215  and  _216
REMARK   85  A    between atoms: _215  and  _218
REMARK   86  A    between atoms: _218  and  _219
REMARK   87  A    between atoms: _219  and  _220
REMARK   88  A    between atoms: _222  and  _224
REMARK   89  A    between atoms: _224  and  _225
REMARK   90  A    between atoms: _224  and  _227
REMARK   91  A    between atoms: _227  and  _228
REMARK   92  A    between atoms: _230  and  _232
REMARK   93  A    between atoms: _232  and  _233
REMARK   94  A    between atoms: _232  and  _235
REMARK   95  A    between atoms: _235  and  _236
REMARK   96  A    between atoms: _236  and  _237
REMARK   97  A    between atoms: _237  and  _238
REMARK   98  A    between atoms: _247  and  _249
REMARK   99  A    between atoms: _249  and  _250
REMARK  100  A    between atoms: _249  and  _252
REMARK  101  A    between atoms: _252  and  _253
REMARK  102  A    between atoms: _258  and  _260
REMARK  103  A    between atoms: _260  and  _261
REMARK  104  A    between atoms: _260  and  _263
REMARK  105  A    between atoms: _263  and  _264
REMARK  106  A    between atoms: _267  and  _269
REMARK  107  A    between atoms: _269  and  _270
REMARK  108  A    between atoms: _269  and  _272
REMARK  109  A    between atoms: _272  and  _273
REMARK  110  A    between atoms: _278  and  _280
REMARK  111  A    between atoms: _280  and  _281
REMARK  112  A    between atoms: _280  and  _283
REMARK  113  A    between atoms: _283  and  _284
REMARK  114  A    between atoms: _287  and  _289
REMARK  115  A    between atoms: _289  and  _290
REMARK  116  A    between atoms: _289  and  _292
REMARK  117  A    between atoms: _292  and  _293
REMARK  118  A    between atoms: _298  and  _300
REMARK  119  A    between atoms: _300  and  _301
REMARK  120  A    between atoms: _300  and  _303
REMARK  121  A    between atoms: _303  and  _304
REMARK  122  A    between atoms: _304  and  _305
REMARK  123  A    between atoms: _307  and  _309
REMARK  124  A    between atoms: _309  and  _310
REMARK  125  A    between atoms: _309  and  _312
REMARK  126  A    between atoms: _312  and  _313
REMARK  127  A    between atoms: _315  and  _317
REMARK  128  A    between atoms: _317  and  _318
REMARK  129  A    between atoms: _317  and  _320
REMARK  130  A    between atoms: _320  and  _321
REMARK  131  A    between atoms: _326  and  _327
REMARK  132  A    between atoms: _329  and  _331
REMARK  133  A    between atoms: _331  and  _332
REMARK  134  A    between atoms: _331  and  _334
REMARK  135  A    between atoms: _334  and  _335
REMARK  136  A    between atoms: _335  and  _336
REMARK  137  A    between atoms: _339  and  _341
REMARK  138  A    between atoms: _341  and  _342
REMARK  139  A    between atoms: _341  and  _344
REMARK  140  A    between atoms: _344  and  _345
REMARK  141  A    between atoms: _345  and  _346
REMARK  142  A    between atoms: _346  and  _348
REMARK  143  A    between atoms: _348  and  FE_417
REMARK  144  A    between atoms: _349  and  _351
REMARK  145  A    between atoms: _351  and  _352
REMARK  146  A    between atoms: _355  and  _357
REMARK  147  A    between atoms: _357  and  _358
REMARK  148  A    between atoms: _357  and  _360
REMARK  149  A    between atoms: _360  and  _361
REMARK  150  A    between atoms: _366  and  _368
REMARK  151  A    between atoms: _368  and  _369
REMARK  152  A    between atoms: _368  and  _371
REMARK  153  A    between atoms: _371  and  _372
REMARK  154  A    between atoms: _375  and  _376
REMARK  155  A    between atoms: _381  and  _383
REMARK  156  A    between atoms: _383  and  _384
REMARK  157  A    between atoms: _383  and  _386
REMARK  158  A    between atoms: _386  and  _387
REMARK  159  A    between atoms: _389  and  _391
REMARK  160  A    between atoms: _391  and  _392
REMARK  161  A    between atoms: _391  and  _394
REMARK  162  A    between atoms: _394  and  _395
REMARK  163  A    between atoms: _400  and  _402
REMARK  164  A    between atoms: _402  and  _403
REMARK  165  A    between atoms: _402  and  _405
REMARK  166  A    between atoms: _405  and  _406
REMARK  167  A    between atoms: _406  and  _407
REMARK  168  A    between atoms: _407  and  _408
REMARK                            x       y       z     vdW  Elec       q    Type
REMARK                         _______ _______ _______ _____ _____    ______ ____
ROOT
ATOM      1  CA  SER A   1      28.380 -25.678  63.457  0.00  0.00    +0.163 C 
ENDROOT
BRANCH   1   2
ATOM      2  N   SER A   1      29.751 -25.191  63.702  0.00  0.00    -0.237 NA
ATOM      3  H   SER A   1      29.979 -24.208  63.449  0.00  0.00    +0.142 HD
ENDBRANCH   1   2
BRANCH   1   4
ATOM      4  C   SER A   1      27.861 -25.047  62.191  0.00  0.00    +0.227 C 
ATOM      5  O   SER A   1      28.045 -23.851  61.973  0.00  0.00    -0.287 OA
ENDBRANCH   1   4
BRANCH   1   6
ATOM      6  CB  SER A   1      27.410 -25.304  64.583  0.00  0.00    +0.162 C 
BRANCH   6   7
ATOM      7  OG  SER A   1      27.688 -26.026  65.771  0.00  0.00    -0.380 OA
ATOM      8  H   SER A   1      27.045 -25.761  66.475  0.00  0.00    +0.211 HD
ENDBRANCH   6   7
ENDBRANCH   1   6
TORSDOF 4
REMARK  Name = ../refined-set-2016/1kmy/1kmy_pocket.pdb
REMARK  168 active torsions:
REMARK  status: ('A' for Active; 'I' for Inactive)
REMARK    1  A    between atoms: _1  and  _3
REMARK    2  A    between atoms: _3  and  _4
REMARK    3  A    between atoms: _3  and  _6
REMARK    4  A    between atoms: _6  and  _7
REMARK    5  A    between atoms: _11  and  FE_417
REMARK    6  A    between atoms: _12  and  _14
REMARK    7  A    between atoms: _14  and  _15
REMARK    8  A    between atoms: _14  and  _17
REMARK    9  A    between atoms: _17  and  _18
REMARK   10  A    between atoms: _24  and  _26
REMARK   11  A    between atoms: _26  and  _27
REMARK   12  A    between atoms: _26  and  _29
REMARK   13  A    between atoms: _32  and  _34
REMARK   14  A    between atoms: _34  and  _35
REMARK   15  A    between atoms: _34  and  _37
REMARK   16  A    between atoms: _37  and  _38
REMARK   17  A    between atoms: _38  and  _39
REMARK   18  A    between atoms: _39  and  _40
REMARK   19  A    between atoms: _49  and  _51
REMARK   20  A    between atoms: _51  and  _52
REMARK   21  A    between atoms: _51  and  _54
REMARK   22  A    between atoms: _56  and  _58
REMARK   23  A    between atoms: _58  and  _59
REMARK   24  A    between atoms: _58  and  _61
REMARK   25  A    between atoms: _61  and  _62
REMARK   26  A    between atoms: _65  and  _67
REMARK   27  A    between atoms: _67  and  _68
REMARK   28  A    between atoms: _67  and  _70
REMARK   29  A    between atoms: _70  and  _71
REMARK   30  A    between atoms: _74  and  _76
REMARK   31  A    between atoms: _76  and  _77
REMARK   32  A    between atoms: _76  and  _79
REMARK   33  A    between atoms: _79  and  _80
REMARK   34  A    between atoms: _80  and  _81
REMARK   35  A    between atoms: _83  and  _85
REMARK   36  A    between atoms: _85  and  _86
REMARK   37  A    between atoms: _89  and  _91
REMARK   38  A    between atoms: _91  and  _92
REMARK   39  A    between atoms: _91  and  _94
REMARK   40  A    between atoms: _94  and  _95
REMARK   41  A    between atoms: _100  and  _101
REMARK   42  A    between atoms: _103  and  _105
REMARK   43  A    between atoms: _105  and  _106
REMARK   44  A    between atoms: _105  and  _108
REMARK   45  A    between atoms: _108  and  _109
REMARK   46  A    between atoms: _115  and  _117
REMARK   47  A    between atoms: _117  and  _118
REMARK   48  A    between atoms: _117  and  _120
REMARK   49  A    between atoms: _120  and  _121
REMARK   50  A    between atoms: _126  and  _128
REMARK   51  A    between atoms: _128  and  _129
REMARK   52  A    between atoms: _128  and  _131
REMARK   53  A    between atoms: _131  and  _132
REMARK   54  A    between atoms: _137  and  _139
REMARK   55  A    between atoms: _139  and  _140
REMARK   56  A    between atoms: _143  and  _145
REMARK   57  A    between atoms: _145  and  _146
REMARK   58  A    between atoms: _145  and  _148
REMARK   59  A    between atoms: _148  and  _149
REMARK   60  A    between atoms: _152  and  _154
REMARK   61  A    between atoms: _154  and  _155
REMARK   62  A    between atoms: _158  and  _160
REMARK   63  A    between atoms: _160  and  _161
REMARK   64  A    between atoms: _160  and  _163
REMARK   65  A    between atoms: _163  and  _164
REMARK   66  A    between atoms: _170  and  _172
REMARK   67  A    between atoms: _172  and  _173
REMARK   68  A    between atoms: _172  and  _175
REMARK   69  A    between atoms: _175  and  _176
REMARK   70  A    between atoms: _179  and  _181
REMARK   71  A    between atoms: _181  and  _182
REMARK   72  A    between atoms: _181  and  _184
REMARK   73  A    between atoms: _184  and  _185
REMARK   74  A    between atoms: _190  and  _192
REMARK   75  A    between atoms: _192  and  _193
REMARK   76  A    between atoms: _192  and  _195
REMARK   77  A    between atoms: _195  and  _196
REMARK   78  A    between atoms: _200  and  FE_417
REMARK   79  A    between atoms: _201  and  _203
REMARK   80  A    between atoms: _203  and  _204
REMARK   81  A    between atoms: _203  and  _206
REMARK   82  A    between atoms: _206  and  _207
REMARK   83  A    between atoms: _213  and  _215
REMARK   84  A    between atoms: _215  and  _216
REMARK   85  A    between atoms: _215  and  _218
REMARK   86  A    between atoms: _218  and  _219
REMARK   87  A    between atoms: _219  and  _220
REMARK   88  A    between atoms: _222  and  _224
REMARK   89  A    between atoms: _224  and  _225
REMARK   90  A    between atoms: _224  and  _227
REMARK   91  A    between atoms: _227  and  _228
REMARK   92  A    between atoms: _230  and  _232
REMARK   93  A    between atoms: _232  and  _233
REMARK   94  A    between atoms: _232  and  _235
REMARK   95  A    between atoms: _235  and  _236
REMARK   96  A    between atoms: _236  and  _237
REMARK   97  A    between atoms: _237  and  _238
REMARK   98  A    between atoms: _247  and  _249
REMARK   99  A    between atoms: _249  and  _250
REMARK  100  A    between atoms: _249  and  _252
REMARK  101  A    between atoms: _252  and  _253
REMARK  102  A    between atoms: _258  and  _260
REMARK  103  A    between atoms: _260  and  _261
REMARK  104  A    between atoms: _260  and  _263
REMARK  105  A    between atoms: _263  and  _264
REMARK  106  A    between atoms: _267  and  _269
REMARK  107  A    between atoms: _269  and  _270
REMARK  108  A    between atoms: _269  and  _272
REMARK  109  A    between atoms: _272  and  _273
REMARK  110  A    between atoms: _278  and  _280
REMARK  111  A    between atoms: _280  and  _281
REMARK  112  A    between atoms: _280  and  _283
REMARK  113  A    between atoms: _283  and  _284
REMARK  114  A    between atoms: _287  and  _289
REMARK  115  A    between atoms: _289  and  _290
REMARK  116  A    between atoms: _289  and  _292
REMARK  117  A    between atoms: _292  and  _293
REMARK  118  A    between atoms: _298  and  _300
REMARK  119  A    between atoms: _300  and  _301
REMARK  120  A    between atoms: _300  and  _303
REMARK  121  A    between atoms: _303  and  _304
REMARK  122  A    between atoms: _304  and  _305
REMARK  123  A    between atoms: _307  and  _309
REMARK  124  A    between atoms: _309  and  _310
REMARK  125  A    between atoms: _309  and  _312
REMARK  126  A    between atoms: _312  and  _313
REMARK  127  A    between atoms: _315  and  _317
REMARK  128  A    between atoms: _317  and  _318
REMARK  129  A    between atoms: _317  and  _320
REMARK  130  A    between atoms: _320  and  _321
REMARK  131  A    between atoms: _326  and  _327
REMARK  132  A    between atoms: _329  and  _331
REMARK  133  A    between atoms: _331  and  _332
REMARK  134  A    between atoms: _331  and  _334
REMARK  135  A    between atoms: _334  and  _335
REMARK  136  A    between atoms: _335  and  _336
REMARK  137  A    between atoms: _339  and  _341
REMARK  138  A    between atoms: _341  and  _342
REMARK  139  A    between atoms: _341  and  _344
REMARK  140  A    between atoms: _344  and  _345
REMARK  141  A    between atoms: _345  and  _346
REMARK  142  A    between atoms: _346  and  _348
REMARK  143  A    between atoms: _348  and  FE_417
REMARK  144  A    between atoms: _349  and  _351
REMARK  145  A    between atoms: _351  and  _352
REMARK  146  A    between atoms: _355  and  _357
REMARK  147  A    between atoms: _357  and  _358
REMARK  148  A    between atoms: _357  and  _360
REMARK  149  A    between atoms: _360  and  _361
REMARK  150  A    between atoms: _366  and  _368
REMARK  151  A    between atoms: _368  and  _369
REMARK  152  A    between atoms: _368  and  _371
REMARK  153  A    between atoms: _371  and  _372
REMARK  154  A    between atoms: _375  and  _376
REMARK  155  A    between atoms: _381  and  _383
REMARK  156  A    between atoms: _383  and  _384
REMARK  157  A    between atoms: _383  and  _386
REMARK  158  A    between atoms: _386  and  _387
REMARK  159  A    between atoms: _389  and  _391
REMARK  160  A    between atoms: _391  and  _392
REMARK  161  A    between atoms: _391  and  _394
REMARK  162  A    between atoms: _394  and  _395
REMARK  163  A    between atoms: _400  and  _402
REMARK  164  A    between atoms: _402  and  _403
REMARK  165  A    between atoms: _402  and  _405
REMARK  166  A    between atoms: _405  and  _406
REMARK  167  A    between atoms: _406  and  _407
REMARK  168  A    between atoms: _407  and  _408
REMARK                            x       y       z     vdW  Elec       q    Type
REMARK                         _______ _______ _______ _____ _____    ______ ____
ROOT
ATOM      1  C   THR A   3      13.375 -23.135  69.596  0.00  0.00    +0.243 C 
ATOM      2  N   ASN A   4      14.177 -22.535  70.471  0.00  0.00    -0.297 N 
ATOM      3  H   ASN A   4      15.194 -22.751  70.475  0.00  0.00    +0.150 HD
ATOM      4  O   THR A   3      12.175 -22.890  69.521  0.00  0.00    -0.273 OA
ENDROOT
BRANCH   1   5
ATOM      5  CA  THR A   3      14.007 -24.177  68.685  0.00  0.00    +0.176 C 
BRANCH   5   7
ATOM      6  C   HIS A   2      15.703 -22.897  67.463  0.00  0.00    +0.241 C 
ATOM      7  N   THR A   3      15.384 -23.842  68.338  0.00  0.00    -0.295 N 
ATOM      8  H   THR A   3      16.153 -24.369  68.799  0.00  0.00    +0.150 HD
ATOM      9  O   HIS A   2      14.877 -22.177  66.900  0.00  0.00    -0.273 OA
BRANCH   6  10
ATOM     10  CA  HIS A   2      17.193 -22.711  67.230  0.00  0.00    +0.155 C 
BRANCH  10  12
ATOM     11  C   ARG A   1      17.399 -23.038  64.820  0.00  0.00    +0.238 C 
ATOM     12  N   HIS A   2      17.482 -22.240  65.881  0.00  0.00    -0.297 N 
ATOM     13  H   HIS A   2      17.762 -21.248  65.744  0.00  0.00    +0.150 HD
ATOM     14  O   ARG A   1      17.098 -24.220  64.894  0.00  0.00    -0.274 OA
BRANCH  11  15
ATOM     15  CA  ARG A   1      17.717 -22.429  63.471  0.00  0.00    +0.145 C 
BRANCH  15  16
ATOM     16  N   ARG A   1      18.614 -23.327  62.751  0.00  0.00    -0.238 NA
ATOM     17  H   ARG A   1      18.355 -24.326  62.624  0.00  0.00    +0.142 HD
ENDBRANCH  15  16
BRANCH  15  18
ATOM     18  CB  ARG A   1      16.404 -22.196  62.726  0.00  0.00    +0.030 C 
BRANCH  18  19
ATOM     19  CG  ARG A   1      15.719 -20.943  63.257  0.00  0.00    +0.045 C 
BRANCH  19  20
ATOM     20  CD  ARG A   1      14.243 -20.818  62.959  0.00  0.00    +0.174 C 
BRANCH  20  21
ATOM     21  NE  ARG A   1      13.929 -20.399  61.600  0.00  0.00    -0.265 N 
ATOM     22  CZ  ARG A   1      13.709 -19.143  61.202  0.00  0.00    +0.342 C 
ATOM     23  NH2 ARG A   1      13.786 -18.119  62.052  0.00  0.00    -0.292 N 
ATOM     24 HH21 ARG A   1      14.022 -18.289  63.051  0.00  0.00    +0.255 HD
ATOM     25 HH22 ARG A   1      13.610 -17.150  61.717  0.00  0.00    +0.255 HD
ATOM     26  NH1 ARG A   1      13.284 -18.933  59.960  0.00  0.00    -0.292 N 
ATOM     27 HH11 ARG A   1      13.106 -17.964  59.628  0.00  0.00    +0.255 HD
ATOM     28 HH12 ARG A   1      13.129 -19.738  59.320  0.00  0.00    +0.255 HD
ATOM     29  HE  ARG A   1      13.871 -21.143  60.876  0.00  0.00    +0.259 HD
ENDBRANCH  20  21
ENDBRANCH  19  20
ENDBRANCH  18  19
ENDBRANCH  15  18
ENDBRANCH  11  15
ENDBRANCH  10  12
BRANCH  10  30
ATOM     30  CB  HIS A   2      17.739 -21.746  68.269  0.00  0.00    +0.076 C 
BRANCH  30  31
ATOM     31  CG  HIS A   2      19.225 -21.784  68.393  0.00  0.00    +0.082 A 
ATOM     32  ND1 HIS A   2      19.911 -22.918  68.773  0.00  0.00    -0.227 NA
ATOM     33  CE1 HIS A   2      21.207 -22.655  68.806  0.00  0.00    +0.199 A 
ATOM     34  NE2 HIS A   2      21.382 -21.389  68.467  0.00  0.00    -0.221 NA
ATOM     35  CD2 HIS A   2      20.160 -20.823  68.197  0.00  0.00    +0.115 A 
ENDBRANCH  30  31
ENDBRANCH  10  30
ENDBRANCH   6  10
ENDBRANCH   5   7
BRANCH   5  36
ATOM     36  CB  THR A   3      13.958 -25.488  69.483  0.00  0.00    +0.137 C 
ATOM     37  CG2 THR A   3      14.194 -26.709  68.588  0.00  0.00    +0.034 C 
BRANCH  36  38
ATOM     38  OG1 THR A   3      14.955 -25.422  70.510  0.00  0.00    -0.382 OA
ATOM     39  HG1 THR A   3      14.940 -26.260  71.037  0.00  0.00    +0.210 HD
ENDBRANCH  36  38
ENDBRANCH   5  36
ENDBRANCH   1   5
BRANCH   2  40
ATOM     40  CA  ASN A   4      13.636 -21.579  71.421  0.00  0.00    +0.158 C 
BRANCH  40  41
ATOM     41  C   ASN A   4      13.589 -20.112  70.998  0.00  0.00    +0.241 C 
ATOM     42  O   ASN A   4      12.535 -19.474  71.126  0.00  0.00    -0.273 OA
ATOM     43  N   ASP A   5      14.696 -19.562  70.501  0.00  0.00    -0.297 N 
ATOM     44  H   ASP A   5      15.570 -20.120  70.426  0.00  0.00    +0.150 HD
BRANCH  43  45
ATOM     45  CA  ASP A   5      14.673 -18.169  70.062  0.00  0.00    +0.160 C 
BRANCH  45  46
ATOM     46  C   ASP A   5      14.460 -18.005  68.565  0.00  0.00    +0.241 C 
ATOM     47  O   ASP A   5      14.314 -16.897  68.078  0.00  0.00    -0.273 OA
ATOM     48  N   HIS A   6      14.415 -19.123  67.847  0.00  0.00    -0.297 N 
ATOM     49  H   HIS A   6      14.533 -20.034  68.334  0.00  0.00    +0.150 HD
BRANCH  48  50
ATOM     50  CA  HIS A   6      14.207 -19.123  66.402  0.00  0.00    +0.155 C 
BRANCH  50  51
ATOM     51  C   HIS A   6      15.258 -18.343  65.608  0.00  0.00    +0.241 C 
ATOM     52  N   MET A   7      16.435 -18.195  66.201  0.00  0.00    -0.298 N 
ATOM     53  H   MET A   7      16.576 -18.578  67.158  0.00  0.00    +0.150 HD
ATOM     54  O   HIS A   6      15.026 -17.920  64.472  0.00  0.00    -0.273 OA
BRANCH  52  55
ATOM     55  CA  MET A   7      17.527 -17.512  65.543  0.00  0.00    +0.138 C 
BRANCH  55  56
ATOM     56  C   MET A   7      18.181 -18.430  64.516  0.00  0.00    +0.227 C 
ATOM     57  O   MET A   7      18.393 -19.616  64.782  0.00  0.00    -0.286 OA
ENDBRANCH  55  56
BRANCH  55  58
ATOM     58  CB  MET A   7      18.576 -17.062  66.558  0.00  0.00    +0.039 C 
BRANCH  58  59
ATOM     59  CG  MET A   7      19.788 -16.404  65.910  0.00  0.00    +0.060 C 
BRANCH  59  60
ATOM     60  SD  MET A   7      20.924 -15.678  67.090  0.00  0.00    -0.139 S 
ATOM     61  CE  MET A   7      20.305 -14.042  67.118  0.00  0.00    +0.069 C 
ENDBRANCH  59  60
ENDBRANCH  58  59
ENDBRANCH  55  58
ENDBRANCH  52  55
ENDBRANCH  50  51
BRANCH  50  62
ATOM     62  CB  HIS A   6      12.783 -18.660  66.078  0.00  0.00    +0.076 C 
BRANCH  62  63
ATOM     63  CG  HIS A   6      11.736 -19.551  66.665  0.00  0.00    +0.082 A 
ATOM     64  CD2 HIS A   6      11.842 -20.680  67.404  0.00  0.00    +0.115 A 
ATOM     65  NE2 HIS A   6      10.573 -21.108  67.689  0.00  0.00    -0.221 NA
ATOM     66  CE1 HIS A   6       9.707 -20.269  67.148  0.00  0.00    +0.199 A 
ATOM     67  ND1 HIS A   6      10.383 -19.321  66.523  0.00  0.00    -0.227 NA
ENDBRANCH  62  63
ENDBRANCH  50  62
ENDBRANCH  48  50
ENDBRANCH  45  46
BRANCH  45  68
ATOM     68  CB  ASP A   5      15.906 -17.382  70.547  0.00  0.00    +0.143 C 
BRANCH  68  69
ATOM     69  CG  ASP A   5      17.220 -17.850  69.939  0.00  0.00    +0.367 C 
ATOM     70  OD2 ASP A   5      18.257 -17.298  70.361  0.00  0.00    -0.246 OA
ATOM     71  OD1 ASP A   5      17.244 -18.760  69.080  0.00  0.00    -0.246 OA
ENDBRANCH  68  69
ENDBRANCH  45  68
ENDBRANCH  43  45
ENDBRANCH  40  41
BRANCH  40  72
ATOM     72  CB  ASN A   4      14.270 -21.773  72.808  0.00  0.00    +0.114 C 
BRANCH  72  73
ATOM     73  CG  ASN A   4      15.770 -21.536  72.825  0.00  0.00    +0.222 C 
ATOM     74  ND2 ASN A   4      16.324 -21.403  74.027  0.00  0.00    -0.329 N 
ATOM     75 HD21 ASN A   4      15.735 -21.469  74.881  0.00  0.00    +0.145 HD
ATOM     76 HD22 ASN A   4      17.346 -21.233  74.112  0.00  0.00    +0.145 HD
ATOM     77  OD1 ASN A   4      16.422 -21.466  71.784  0.00  0.00    -0.275 OA
ENDBRANCH  72  73
ENDBRANCH  40  72
ENDBRANCH   2  40
TORSDOF 31
REMARK  Name = ../refined-set-2016/1kmy/1kmy_pocket.pdb
REMARK  168 active torsions:
REMARK  status: ('A' for Active; 'I' for Inactive)
REMARK    1  A    between atoms: _1  and  _3
REMARK    2  A    between atoms: _3  and  _4
REMARK    3  A    between atoms: _3  and  _6
REMARK    4  A    between atoms: _6  and  _7
REMARK    5  A    between atoms: _11  and  FE_417
REMARK    6  A    between atoms: _12  and  _14
REMARK    7  A    between atoms: _14  and  _15
REMARK    8  A    between atoms: _14  and  _17
REMARK    9  A    between atoms: _17  and  _18
REMARK   10  A    between atoms: _24  and  _26
REMARK   11  A    between atoms: _26  and  _27
REMARK   12  A    between atoms: _26  and  _29
REMARK   13  A    between atoms: _32  and  _34
REMARK   14  A    between atoms: _34  and  _35
REMARK   15  A    between atoms: _34  and  _37
REMARK   16  A    between atoms: _37  and  _38
REMARK   17  A    between atoms: _38  and  _39
REMARK   18  A    between atoms: _39  and  _40
REMARK   19  A    between atoms: _49  and  _51
REMARK   20  A    between atoms: _51  and  _52
REMARK   21  A    between atoms: _51  and  _54
REMARK   22  A    between atoms: _56  and  _58
REMARK   23  A    between atoms: _58  and  _59
REMARK   24  A    between atoms: _58  and  _61
REMARK   25  A    between atoms: _61  and  _62
REMARK   26  A    between atoms: _65  and  _67
REMARK   27  A    between atoms: _67  and  _68
REMARK   28  A    between atoms: _67  and  _70
REMARK   29  A    between atoms: _70  and  _71
REMARK   30  A    between atoms: _74  and  _76
REMARK   31  A    between atoms: _76  and  _77
REMARK   32  A    between atoms: _76  and  _79
REMARK   33  A    between atoms: _79  and  _80
REMARK   34  A    between atoms: _80  and  _81
REMARK   35  A    between atoms: _83  and  _85
REMARK   36  A    between atoms: _85  and  _86
REMARK   37  A    between atoms: _89  and  _91
REMARK   38  A    between atoms: _91  and  _92
REMARK   39  A    between atoms: _91  and  _94
REMARK   40  A    between atoms: _94  and  _95
REMARK   41  A    between atoms: _100  and  _101
REMARK   42  A    between atoms: _103  and  _105
REMARK   43  A    between atoms: _105  and  _106
REMARK   44  A    between atoms: _105  and  _108
REMARK   45  A    between atoms: _108  and  _109
REMARK   46  A    between atoms: _115  and  _117
REMARK   47  A    between atoms: _117  and  _118
REMARK   48  A    between atoms: _117  and  _120
REMARK   49  A    between atoms: _120  and  _121
REMARK   50  A    between atoms: _126  and  _128
REMARK   51  A    between atoms: _128  and  _129
REMARK   52  A    between atoms: _128  and  _131
REMARK   53  A    between atoms: _131  and  _132
REMARK   54  A    between atoms: _137  and  _139
REMARK   55  A    between atoms: _139  and  _140
REMARK   56  A    between atoms: _143  and  _145
REMARK   57  A    between atoms: _145  and  _146
REMARK   58  A    between atoms: _145  and  _148
REMARK   59  A    between atoms: _148  and  _149
REMARK   60  A    between atoms: _152  and  _154
REMARK   61  A    between atoms: _154  and  _155
REMARK   62  A    between atoms: _158  and  _160
REMARK   63  A    between atoms: _160  and  _161
REMARK   64  A    between atoms: _160  and  _163
REMARK   65  A    between atoms: _163  and  _164
REMARK   66  A    between atoms: _170  and  _172
REMARK   67  A    between atoms: _172  and  _173
REMARK   68  A    between atoms: _172  and  _175
REMARK   69  A    between atoms: _175  and  _176
REMARK   70  A    between atoms: _179  and  _181
REMARK   71  A    between atoms: _181  and  _182
REMARK   72  A    between atoms: _181  and  _184
REMARK   73  A    between atoms: _184  and  _185
REMARK   74  A    between atoms: _190  and  _192
REMARK   75  A    between atoms: _192  and  _193
REMARK   76  A    between atoms: _192  and  _195
REMARK   77  A    between atoms: _195  and  _196
REMARK   78  A    between atoms: _200  and  FE_417
REMARK   79  A    between atoms: _201  and  _203
REMARK   80  A    between atoms: _203  and  _204
REMARK   81  A    between atoms: _203  and  _206
REMARK   82  A    between atoms: _206  and  _207
REMARK   83  A    between atoms: _213  and  _215
REMARK   84  A    between atoms: _215  and  _216
REMARK   85  A    between atoms: _215  and  _218
REMARK   86  A    between atoms: _218  and  _219
REMARK   87  A    between atoms: _219  and  _220
REMARK   88  A    between atoms: _222  and  _224
REMARK   89  A    between atoms: _224  and  _225
REMARK   90  A    between atoms: _224  and  _227
REMARK   91  A    between atoms: _227  and  _228
REMARK   92  A    between atoms: _230  and  _232
REMARK   93  A    between atoms: _232  and  _233
REMARK   94  A    between atoms: _232  and  _235
REMARK   95  A    between atoms: _235  and  _236
REMARK   96  A    between atoms: _236  and  _237
REMARK   97  A    between atoms: _237  and  _238
REMARK   98  A    between atoms: _247  and  _249
REMARK   99  A    between atoms: _249  and  _250
REMARK  100  A    between atoms: _249  and  _252
REMARK  101  A    between atoms: _252  and  _253
REMARK  102  A    between atoms: _258  and  _260
REMARK  103  A    between atoms: _260  and  _261
REMARK  104  A    between atoms: _260  and  _263
REMARK  105  A    between atoms: _263  and  _264
REMARK  106  A    between atoms: _267  and  _269
REMARK  107  A    between atoms: _269  and  _270
REMARK  108  A    between atoms: _269  and  _272
REMARK  109  A    between atoms: _272  and  _273
REMARK  110  A    between atoms: _278  and  _280
REMARK  111  A    between atoms: _280  and  _281
REMARK  112  A    between atoms: _280  and  _283
REMARK  113  A    between atoms: _283  and  _284
REMARK  114  A    between atoms: _287  and  _289
REMARK  115  A    between atoms: _289  and  _290
REMARK  116  A    between atoms: _289  and  _292
REMARK  117  A    between atoms: _292  and  _293
REMARK  118  A    between atoms: _298  and  _300
REMARK  119  A    between atoms: _300  and  _301
REMARK  120  A    between atoms: _300  and  _303
REMARK  121  A    between atoms: _303  and  _304
REMARK  122  A    between atoms: _304  and  _305
REMARK  123  A    between atoms: _307  and  _309
REMARK  124  A    between atoms: _309  and  _310
REMARK  125  A    between atoms: _309  and  _312
REMARK  126  A    between atoms: _312  and  _313
REMARK  127  A    between atoms: _315  and  _317
REMARK  128  A    between atoms: _317  and  _318
REMARK  129  A    between atoms: _317  and  _320
REMARK  130  A    between atoms: _320  and  _321
REMARK  131  A    between atoms: _326  and  _327
REMARK  132  A    between atoms: _329  and  _331
REMARK  133  A    between atoms: _331  and  _332
REMARK  134  A    between atoms: _331  and  _334
REMARK  135  A    between atoms: _334  and  _335
REMARK  136  A    between atoms: _335  and  _336
REMARK  137  A    between atoms: _339  and  _341
REMARK  138  A    between atoms: _341  and  _342
REMARK  139  A    between atoms: _341  and  _344
REMARK  140  A    between atoms: _344  and  _345
REMARK  141  A    between atoms: _345  and  _346
REMARK  142  A    between atoms: _346  and  _348
REMARK  143  A    between atoms: _348  and  FE_417
REMARK  144  A    between atoms: _349  and  _351
REMARK  145  A    between atoms: _351  and  _352
REMARK  146  A    between atoms: _355  and  _357
REMARK  147  A    between atoms: _357  and  _358
REMARK  148  A    between atoms: _357  and  _360
REMARK  149  A    between atoms: _360  and  _361
REMARK  150  A    between atoms: _366  and  _368
REMARK  151  A    between atoms: _368  and  _369
REMARK  152  A    between atoms: _368  and  _371
REMARK  153  A    between atoms: _371  and  _372
REMARK  154  A    between atoms: _375  and  _376
REMARK  155  A    between atoms: _381  and  _383
REMARK  156  A    between atoms: _383  and  _384
REMARK  157  A    between atoms: _383  and  _386
REMARK  158  A    between atoms: _386  and  _387
REMARK  159  A    between atoms: _389  and  _391
REMARK  160  A    between atoms: _391  and  _392
REMARK  161  A    between atoms: _391  and  _394
REMARK  162  A    between atoms: _394  and  _395
REMARK  163  A    between atoms: _400  and  _402
REMARK  164  A    between atoms: _402  and  _403
REMARK  165  A    between atoms: _402  and  _405
REMARK  166  A    between atoms: _405  and  _406
REMARK  167  A    between atoms: _406  and  _407
REMARK  168  A    between atoms: _407  and  _408
REMARK                            x       y       z     vdW  Elec       q    Type
REMARK                         _______ _______ _______ _____ _____    ______ ____
ROOT
ATOM      1  CA  SER A   1      22.923 -18.851  63.031  0.00  0.00    +0.163 C 
ENDROOT
BRANCH   1   2
ATOM      2  N   SER A   1      21.533 -19.179  62.734  0.00  0.00    -0.237 NA
ATOM      3  H   SER A   1      21.234 -20.173  62.674  0.00  0.00    +0.142 HD
ENDBRANCH   1   2
BRANCH   1   4
ATOM      4  CB  SER A   1      23.916 -19.961  62.745  0.00  0.00    +0.227 C 
ATOM      5  OG  SER A   1      23.534 -21.070  62.387  0.00  0.00    -0.287 OA
ENDBRANCH   1   4
BRANCH   1   6
ATOM      6  C   SER A   1      23.029 -18.553  64.524  0.00  0.00    +0.162 C 
BRANCH   6   7
ATOM      7  O   SER A   1      22.818 -19.748  65.281  0.00  0.00    -0.380 OA
ATOM      8  H   SER A   1      22.889 -19.542  66.247  0.00  0.00    +0.211 HD
ENDBRANCH   6   7
ENDBRANCH   1   6
TORSDOF 4
REMARK  Name = ../refined-set-2016/1kmy/1kmy_pocket.pdb
REMARK  168 active torsions:
REMARK  status: ('A' for Active; 'I' for Inactive)
REMARK    1  A    between atoms: _1  and  _3
REMARK    2  A    between atoms: _3  and  _4
REMARK    3  A    between atoms: _3  and  _6
REMARK    4  A    between atoms: _6  and  _7
REMARK    5  A    between atoms: _11  and  FE_417
REMARK    6  A    between atoms: _12  and  _14
REMARK    7  A    between atoms: _14  and  _15
REMARK    8  A    between atoms: _14  and  _17
REMARK    9  A    between atoms: _17  and  _18
REMARK   10  A    between atoms: _24  and  _26
REMARK   11  A    between atoms: _26  and  _27
REMARK   12  A    between atoms: _26  and  _29
REMARK   13  A    between atoms: _32  and  _34
REMARK   14  A    between atoms: _34  and  _35
REMARK   15  A    between atoms: _34  and  _37
REMARK   16  A    between atoms: _37  and  _38
REMARK   17  A    between atoms: _38  and  _39
REMARK   18  A    between atoms: _39  and  _40
REMARK   19  A    between atoms: _49  and  _51
REMARK   20  A    between atoms: _51  and  _52
REMARK   21  A    between atoms: _51  and  _54
REMARK   22  A    between atoms: _56  and  _58
REMARK   23  A    between atoms: _58  and  _59
REMARK   24  A    between atoms: _58  and  _61
REMARK   25  A    between atoms: _61  and  _62
REMARK   26  A    between atoms: _65  and  _67
REMARK   27  A    between atoms: _67  and  _68
REMARK   28  A    between atoms: _67  and  _70
REMARK   29  A    between atoms: _70  and  _71
REMARK   30  A    between atoms: _74  and  _76
REMARK   31  A    between atoms: _76  and  _77
REMARK   32  A    between atoms: _76  and  _79
REMARK   33  A    between atoms: _79  and  _80
REMARK   34  A    between atoms: _80  and  _81
REMARK   35  A    between atoms: _83  and  _85
REMARK   36  A    between atoms: _85  and  _86
REMARK   37  A    between atoms: _89  and  _91
REMARK   38  A    between atoms: _91  and  _92
REMARK   39  A    between atoms: _91  and  _94
REMARK   40  A    between atoms: _94  and  _95
REMARK   41  A    between atoms: _100  and  _101
REMARK   42  A    between atoms: _103  and  _105
REMARK   43  A    between atoms: _105  and  _106
REMARK   44  A    between atoms: _105  and  _108
REMARK   45  A    between atoms: _108  and  _109
REMARK   46  A    between atoms: _115  and  _117
REMARK   47  A    between atoms: _117  and  _118
REMARK   48  A    between atoms: _117  and  _120
REMARK   49  A    between atoms: _120  and  _121
REMARK   50  A    between atoms: _126  and  _128
REMARK   51  A    between atoms: _128  and  _129
REMARK   52  A    between atoms: _128  and  _131
REMARK   53  A    between atoms: _131  and  _132
REMARK   54  A    between atoms: _137  and  _139
REMARK   55  A    between atoms: _139  and  _140
REMARK   56  A    between atoms: _143  and  _145
REMARK   57  A    between atoms: _145  and  _146
REMARK   58  A    between atoms: _145  and  _148
REMARK   59  A    between atoms: _148  and  _149
REMARK   60  A    between atoms: _152  and  _154
REMARK   61  A    between atoms: _154  and  _155
REMARK   62  A    between atoms: _158  and  _160
REMARK   63  A    between atoms: _160  and  _161
REMARK   64  A    between atoms: _160  and  _163
REMARK   65  A    between atoms: _163  and  _164
REMARK   66  A    between atoms: _170  and  _172
REMARK   67  A    between atoms: _172  and  _173
REMARK   68  A    between atoms: _172  and  _175
REMARK   69  A    between atoms: _175  and  _176
REMARK   70  A    between atoms: _179  and  _181
REMARK   71  A    between atoms: _181  and  _182
REMARK   72  A    between atoms: _181  and  _184
REMARK   73  A    between atoms: _184  and  _185
REMARK   74  A    between atoms: _190  and  _192
REMARK   75  A    between atoms: _192  and  _193
REMARK   76  A    between atoms: _192  and  _195
REMARK   77  A    between atoms: _195  and  _196
REMARK   78  A    between atoms: _200  and  FE_417
REMARK   79  A    between atoms: _201  and  _203
REMARK   80  A    between atoms: _203  and  _204
REMARK   81  A    between atoms: _203  and  _206
REMARK   82  A    between atoms: _206  and  _207
REMARK   83  A    between atoms: _213  and  _215
REMARK   84  A    between atoms: _215  and  _216
REMARK   85  A    between atoms: _215  and  _218
REMARK   86  A    between atoms: _218  and  _219
REMARK   87  A    between atoms: _219  and  _220
REMARK   88  A    between atoms: _222  and  _224
REMARK   89  A    between atoms: _224  and  _225
REMARK   90  A    between atoms: _224  and  _227
REMARK   91  A    between atoms: _227  and  _228
REMARK   92  A    between atoms: _230  and  _232
REMARK   93  A    between atoms: _232  and  _233
REMARK   94  A    between atoms: _232  and  _235
REMARK   95  A    between atoms: _235  and  _236
REMARK   96  A    between atoms: _236  and  _237
REMARK   97  A    between atoms: _237  and  _238
REMARK   98  A    between atoms: _247  and  _249
REMARK   99  A    between atoms: _249  and  _250
REMARK  100  A    between atoms: _249  and  _252
REMARK  101  A    between atoms: _252  and  _253
REMARK  102  A    between atoms: _258  and  _260
REMARK  103  A    between atoms: _260  and  _261
REMARK  104  A    between atoms: _260  and  _263
REMARK  105  A    between atoms: _263  and  _264
REMARK  106  A    between atoms: _267  and  _269
REMARK  107  A    between atoms: _269  and  _270
REMARK  108  A    between atoms: _269  and  _272
REMARK  109  A    between atoms: _272  and  _273
REMARK  110  A    between atoms: _278  and  _280
REMARK  111  A    between atoms: _280  and  _281
REMARK  112  A    between atoms: _280  and  _283
REMARK  113  A    between atoms: _283  and  _284
REMARK  114  A    between atoms: _287  and  _289
REMARK  115  A    between atoms: _289  and  _290
REMARK  116  A    between atoms: _289  and  _292
REMARK  117  A    between atoms: _292  and  _293
REMARK  118  A    between atoms: _298  and  _300
REMARK  119  A    between atoms: _300  and  _301
REMARK  120  A    between atoms: _300  and  _303
REMARK  121  A    between atoms: _303  and  _304
REMARK  122  A    between atoms: _304  and  _305
REMARK  123  A    between atoms: _307  and  _309
REMARK  124  A    between atoms: _309  and  _310
REMARK  125  A    between atoms: _309  and  _312
REMARK  126  A    between atoms: _312  and  _313
REMARK  127  A    between atoms: _315  and  _317
REMARK  128  A    between atoms: _317  and  _318
REMARK  129  A    between atoms: _317  and  _320
REMARK  130  A    between atoms: _320  and  _321
REMARK  131  A    between atoms: _326  and  _327
REMARK  132  A    between atoms: _329  and  _331
REMARK  133  A    between atoms: _331  and  _332
REMARK  134  A    between atoms: _331  and  _334
REMARK  135  A    between atoms: _334  and  _335
REMARK  136  A    between atoms: _335  and  _336
REMARK  137  A    between atoms: _339  and  _341
REMARK  138  A    between atoms: _341  and  _342
REMARK  139  A    between atoms: _341  and  _344
REMARK  140  A    between atoms: _344  and  _345
REMARK  141  A    between atoms: _345  and  _346
REMARK  142  A    between atoms: _346  and  _348
REMARK  143  A    between atoms: _348  and  FE_417
REMARK  144  A    between atoms: _349  and  _351
REMARK  145  A    between atoms: _351  and  _352
REMARK  146  A    between atoms: _355  and  _357
REMARK  147  A    between atoms: _357  and  _358
REMARK  148  A    between atoms: _357  and  _360
REMARK  149  A    between atoms: _360  and  _361
REMARK  150  A    between atoms: _366  and  _368
REMARK  151  A    between atoms: _368  and  _369
REMARK  152  A    between atoms: _368  and  _371
REMARK  153  A    between atoms: _371  and  _372
REMARK  154  A    between atoms: _375  and  _376
REMARK  155  A    between atoms: _381  and  _383
REMARK  156  A    between atoms: _383  and  _384
REMARK  157  A    between atoms: _383  and  _386
REMARK  158  A    between atoms: _386  and  _387
REMARK  159  A    between atoms: _389  and  _391
REMARK  160  A    between atoms: _391  and  _392
REMARK  161  A    between atoms: _391  and  _394
REMARK  162  A    between atoms: _394  and  _395
REMARK  163  A    between atoms: _400  and  _402
REMARK  164  A    between atoms: _402  and  _403
REMARK  165  A    between atoms: _402  and  _405
REMARK  166  A    between atoms: _405  and  _406
REMARK  167  A    between atoms: _406  and  _407
REMARK  168  A    between atoms: _407  and  _408
REMARK                            x       y       z     vdW  Elec       q    Type
REMARK                         _______ _______ _______ _____ _____    ______ ____
ROOT
ATOM      1  CG  TYR A   1      27.548 -22.000  67.222  0.00  0.00    -0.020 A 
ATOM      2  CD2 TYR A   1      27.554 -21.586  68.549  0.00  0.00    -0.001 A 
ATOM      3  CE2 TYR A   1      26.382 -21.556  69.295  0.00  0.00    +0.036 A 
ATOM      4  CZ  TYR A   1      25.181 -21.946  68.702  0.00  0.00    +0.134 A 
ATOM      5  CE1 TYR A   1      25.151 -22.345  67.389  0.00  0.00    +0.036 A 
ATOM      6  CD1 TYR A   1      26.329 -22.371  66.653  0.00  0.00    -0.001 A 
ENDROOT
BRANCH   4   7
ATOM      7  OH  TYR A   1      24.018 -21.992  69.430  0.00  0.00    -0.506 OA
ATOM      8  HH  TYR A   1      23.818 -21.091  69.788  0.00  0.00    +0.292 HD
ENDBRANCH   4   7
BRANCH   1   9
ATOM      9  CB  TYR A   1      28.835 -22.112  66.441  0.00  0.00    +0.051 C 
BRANCH   9  10
ATOM     10  CA  TYR A   1      29.031 -21.040  65.357  0.00  0.00    +0.137 C 
BRANCH  10  11
ATOM     11  N   TYR A   1      28.088 -21.216  64.249  0.00  0.00    -0.239 NA
ATOM     12  H   TYR A   1      28.127 -22.096  63.696  0.00  0.00    +0.142 HD
ENDBRANCH  10  11
BRANCH  10  13
ATOM     13  C   TYR A   1      30.439 -21.166  64.777  0.00  0.00    +0.224 C 
ATOM     14  O   TYR A   1      30.651 -21.897  63.806  0.00  0.00    -0.287 OA
ENDBRANCH  10  13
ENDBRANCH   9  10
ENDBRANCH   1   9
TORSDOF 5
REMARK  Name = ../refined-set-2016/1kmy/1kmy_pocket.pdb
REMARK  168 active torsions:
REMARK  status: ('A' for Active; 'I' for Inactive)
REMARK    1  A    between atoms: _1  and  _3
REMARK    2  A    between atoms: _3  and  _4
REMARK    3  A    between atoms: _3  and  _6
REMARK    4  A    between atoms: _6  and  _7
REMARK    5  A    between atoms: _11  and  FE_417
REMARK    6  A    between atoms: _12  and  _14
REMARK    7  A    between atoms: _14  and  _15
REMARK    8  A    between atoms: _14  and  _17
REMARK    9  A    between atoms: _17  and  _18
REMARK   10  A    between atoms: _24  and  _26
REMARK   11  A    between atoms: _26  and  _27
REMARK   12  A    between atoms: _26  and  _29
REMARK   13  A    between atoms: _32  and  _34
REMARK   14  A    between atoms: _34  and  _35
REMARK   15  A    between atoms: _34  and  _37
REMARK   16  A    between atoms: _37  and  _38
REMARK   17  A    between atoms: _38  and  _39
REMARK   18  A    between atoms: _39  and  _40
REMARK   19  A    between atoms: _49  and  _51
REMARK   20  A    between atoms: _51  and  _52
REMARK   21  A    between atoms: _51  and  _54
REMARK   22  A    between atoms: _56  and  _58
REMARK   23  A    between atoms: _58  and  _59
REMARK   24  A    between atoms: _58  and  _61
REMARK   25  A    between atoms: _61  and  _62
REMARK   26  A    between atoms: _65  and  _67
REMARK   27  A    between atoms: _67  and  _68
REMARK   28  A    between atoms: _67  and  _70
REMARK   29  A    between atoms: _70  and  _71
REMARK   30  A    between atoms: _74  and  _76
REMARK   31  A    between atoms: _76  and  _77
REMARK   32  A    between atoms: _76  and  _79
REMARK   33  A    between atoms: _79  and  _80
REMARK   34  A    between atoms: _80  and  _81
REMARK   35  A    between atoms: _83  and  _85
REMARK   36  A    between atoms: _85  and  _86
REMARK   37  A    between atoms: _89  and  _91
REMARK   38  A    between atoms: _91  and  _92
REMARK   39  A    between atoms: _91  and  _94
REMARK   40  A    between atoms: _94  and  _95
REMARK   41  A    between atoms: _100  and  _101
REMARK   42  A    between atoms: _103  and  _105
REMARK   43  A    between atoms: _105  and  _106
REMARK   44  A    between atoms: _105  and  _108
REMARK   45  A    between atoms: _108  and  _109
REMARK   46  A    between atoms: _115  and  _117
REMARK   47  A    between atoms: _117  and  _118
REMARK   48  A    between atoms: _117  and  _120
REMARK   49  A    between atoms: _120  and  _121
REMARK   50  A    between atoms: _126  and  _128
REMARK   51  A    between atoms: _128  and  _129
REMARK   52  A    between atoms: _128  and  _131
REMARK   53  A    between atoms: _131  and  _132
REMARK   54  A    between atoms: _137  and  _139
REMARK   55  A    between atoms: _139  and  _140
REMARK   56  A    between atoms: _143  and  _145
REMARK   57  A    between atoms: _145  and  _146
REMARK   58  A    between atoms: _145  and  _148
REMARK   59  A    between atoms: _148  and  _149
REMARK   60  A    between atoms: _152  and  _154
REMARK   61  A    between atoms: _154  and  _155
REMARK   62  A    between atoms: _158  and  _160
REMARK   63  A    between atoms: _160  and  _161
REMARK   64  A    between atoms: _160  and  _163
REMARK   65  A    between atoms: _163  and  _164
REMARK   66  A    between atoms: _170  and  _172
REMARK   67  A    between atoms: _172  and  _173
REMARK   68  A    between atoms: _172  and  _175
REMARK   69  A    between atoms: _175  and  _176
REMARK   70  A    between atoms: _179  and  _181
REMARK   71  A    between atoms: _181  and  _182
REMARK   72  A    between atoms: _181  and  _184
REMARK   73  A    between atoms: _184  and  _185
REMARK   74  A    between atoms: _190  and  _192
REMARK   75  A    between atoms: _192  and  _193
REMARK   76  A    between atoms: _192  and  _195
REMARK   77  A    between atoms: _195  and  _196
REMARK   78  A    between atoms: _200  and  FE_417
REMARK   79  A    between atoms: _201  and  _203
REMARK   80  A    between atoms: _203  and  _204
REMARK   81  A    between atoms: _203  and  _206
REMARK   82  A    between atoms: _206  and  _207
REMARK   83  A    between atoms: _213  and  _215
REMARK   84  A    between atoms: _215  and  _216
REMARK   85  A    between atoms: _215  and  _218
REMARK   86  A    between atoms: _218  and  _219
REMARK   87  A    between atoms: _219  and  _220
REMARK   88  A    between atoms: _222  and  _224
REMARK   89  A    between atoms: _224  and  _225
REMARK   90  A    between atoms: _224  and  _227
REMARK   91  A    between atoms: _227  and  _228
REMARK   92  A    between atoms: _230  and  _232
REMARK   93  A    between atoms: _232  and  _233
REMARK   94  A    between atoms: _232  and  _235
REMARK   95  A    between atoms: _235  and  _236
REMARK   96  A    between atoms: _236  and  _237
REMARK   97  A    between atoms: _237  and  _238
REMARK   98  A    between atoms: _247  and  _249
REMARK   99  A    between atoms: _249  and  _250
REMARK  100  A    between atoms: _249  and  _252
REMARK  101  A    between atoms: _252  and  _253
REMARK  102  A    between atoms: _258  and  _260
REMARK  103  A    between atoms: _260  and  _261
REMARK  104  A    between atoms: _260  and  _263
REMARK  105  A    between atoms: _263  and  _264
REMARK  106  A    between atoms: _267  and  _269
REMARK  107  A    between atoms: _269  and  _270
REMARK  108  A    between atoms: _269  and  _272
REMARK  109  A    between atoms: _272  and  _273
REMARK  110  A    between atoms: _278  and  _280
REMARK  111  A    between atoms: _280  and  _281
REMARK  112  A    between atoms: _280  and  _283
REMARK  113  A    between atoms: _283  and  _284
REMARK  114  A    between atoms: _287  and  _289
REMARK  115  A    between atoms: _289  and  _290
REMARK  116  A    between atoms: _289  and  _292
REMARK  117  A    between atoms: _292  and  _293
REMARK  118  A    between atoms: _298  and  _300
REMARK  119  A    between atoms: _300  and  _301
REMARK  120  A    between atoms: _300  and  _303
REMARK  121  A    between atoms: _303  and  _304
REMARK  122  A    between atoms: _304  and  _305
REMARK  123  A    between atoms: _307  and  _309
REMARK  124  A    between atoms: _309  and  _310
REMARK  125  A    between atoms: _309  and  _312
REMARK  126  A    between atoms: _312  and  _313
REMARK  127  A    between atoms: _315  and  _317
REMARK  128  A    between atoms: _317  and  _318
REMARK  129  A    between atoms: _317  and  _320
REMARK  130  A    between atoms: _320  and  _321
REMARK  131  A    between atoms: _326  and  _327
REMARK  132  A    between atoms: _329  and  _331
REMARK  133  A    between atoms: _331  and  _332
REMARK  134  A    between atoms: _331  and  _334
REMARK  135  A    between atoms: _334  and  _335
REMARK  136  A    between atoms: _335  and  _336
REMARK  137  A    between atoms: _339  and  _341
REMARK  138  A    between atoms: _341  and  _342
REMARK  139  A    between atoms: _341  and  _344
REMARK  140  A    between atoms: _344  and  _345
REMARK  141  A    between atoms: _345  and  _346
REMARK  142  A    between atoms: _346  and  _348
REMARK  143  A    between atoms: _348  and  FE_417
REMARK  144  A    between atoms: _349  and  _351
REMARK  145  A    between atoms: _351  and  _352
REMARK  146  A    between atoms: _355  and  _357
REMARK  147  A    between atoms: _357  and  _358
REMARK  148  A    between atoms: _357  and  _360
REMARK  149  A    between atoms: _360  and  _361
REMARK  150  A    between atoms: _366  and  _368
REMARK  151  A    between atoms: _368  and  _369
REMARK  152  A    between atoms: _368  and  _371
REMARK  153  A    between atoms: _371  and  _372
REMARK  154  A    between atoms: _375  and  _376
REMARK  155  A    between atoms: _381  and  _383
REMARK  156  A    between atoms: _383  and  _384
REMARK  157  A    between atoms: _383  and  _386
REMARK  158  A    between atoms: _386  and  _387
REMARK  159  A    between atoms: _389  and  _391
REMARK  160  A    between atoms: _391  and  _392
REMARK  161  A    between atoms: _391  and  _394
REMARK  162  A    between atoms: _394  and  _395
REMARK  163  A    between atoms: _400  and  _402
REMARK  164  A    between atoms: _402  and  _403
REMARK  165  A    between atoms: _402  and  _405
REMARK  166  A    between atoms: _405  and  _406
REMARK  167  A    between atoms: _406  and  _407
REMARK  168  A    between atoms: _407  and  _408
REMARK                            x       y       z     vdW  Elec       q    Type
REMARK                         _______ _______ _______ _____ _____    ______ ____
ROOT
ATOM      1  CA  GLU A   1      33.100 -19.897  70.339  0.00  0.00    +0.134 C 
ENDROOT
BRANCH   1   2
ATOM      2  N   GLU A   1      33.777 -20.014  71.627  0.00  0.00    -0.239 NA
ATOM      3  H   GLU A   1      33.276 -20.419  72.443  0.00  0.00    +0.142 HD
ENDBRANCH   1   2
BRANCH   1   4
ATOM      4  C   GLU A   1      32.267 -18.624  70.222  0.00  0.00    +0.224 C 
ATOM      5  O   GLU A   1      31.973 -17.957  71.217  0.00  0.00    -0.287 OA
ENDBRANCH   1   4
BRANCH   1   6
ATOM      6  CB  GLU A   1      32.208 -21.111  70.085  0.00  0.00    +0.037 C 
BRANCH   6   7
ATOM      7  CG  GLU A   1      32.971 -22.401  69.883  0.00  0.00    +0.116 C 
BRANCH   7   8
ATOM      8  CD  GLU A   1      32.063 -23.578  69.573  0.00  0.00    +0.365 C 
ATOM      9  OE2 GLU A   1      32.264 -24.656  70.159  0.00  0.00    -0.246 OA
ATOM     10  OE1 GLU A   1      31.141 -23.449  68.746  0.00  0.00    -0.246 OA
ENDBRANCH   7   8
ENDBRANCH   6   7
ENDBRANCH   1   6
TORSDOF 5
REMARK  Name = ../refined-set-2016/1kmy/1kmy_pocket.pdb
REMARK  168 active torsions:
REMARK  status: ('A' for Active; 'I' for Inactive)
REMARK    1  A    between atoms: _1  and  _3
REMARK    2  A    between atoms: _3  and  _4
REMARK    3  A    between atoms: _3  and  _6
REMARK    4  A    between atoms: _6  and  _7
REMARK    5  A    between atoms: _11  and  FE_417
REMARK    6  A    between atoms: _12  and  _14
REMARK    7  A    between atoms: _14  and  _15
REMARK    8  A    between atoms: _14  and  _17
REMARK    9  A    between atoms: _17  and  _18
REMARK   10  A    between atoms: _24  and  _26
REMARK   11  A    between atoms: _26  and  _27
REMARK   12  A    between atoms: _26  and  _29
REMARK   13  A    between atoms: _32  and  _34
REMARK   14  A    between atoms: _34  and  _35
REMARK   15  A    between atoms: _34  and  _37
REMARK   16  A    between atoms: _37  and  _38
REMARK   17  A    between atoms: _38  and  _39
REMARK   18  A    between atoms: _39  and  _40
REMARK   19  A    between atoms: _49  and  _51
REMARK   20  A    between atoms: _51  and  _52
REMARK   21  A    between atoms: _51  and  _54
REMARK   22  A    between atoms: _56  and  _58
REMARK   23  A    between atoms: _58  and  _59
REMARK   24  A    between atoms: _58  and  _61
REMARK   25  A    between atoms: _61  and  _62
REMARK   26  A    between atoms: _65  and  _67
REMARK   27  A    between atoms: _67  and  _68
REMARK   28  A    between atoms: _67  and  _70
REMARK   29  A    between atoms: _70  and  _71
REMARK   30  A    between atoms: _74  and  _76
REMARK   31  A    between atoms: _76  and  _77
REMARK   32  A    between atoms: _76  and  _79
REMARK   33  A    between atoms: _79  and  _80
REMARK   34  A    between atoms: _80  and  _81
REMARK   35  A    between atoms: _83  and  _85
REMARK   36  A    between atoms: _85  and  _86
REMARK   37  A    between atoms: _89  and  _91
REMARK   38  A    between atoms: _91  and  _92
REMARK   39  A    between atoms: _91  and  _94
REMARK   40  A    between atoms: _94  and  _95
REMARK   41  A    between atoms: _100  and  _101
REMARK   42  A    between atoms: _103  and  _105
REMARK   43  A    between atoms: _105  and  _106
REMARK   44  A    between atoms: _105  and  _108
REMARK   45  A    between atoms: _108  and  _109
REMARK   46  A    between atoms: _115  and  _117
REMARK   47  A    between atoms: _117  and  _118
REMARK   48  A    between atoms: _117  and  _120
REMARK   49  A    between atoms: _120  and  _121
REMARK   50  A    between atoms: _126  and  _128
REMARK   51  A    between atoms: _128  and  _129
REMARK   52  A    between atoms: _128  and  _131
REMARK   53  A    between atoms: _131  and  _132
REMARK   54  A    between atoms: _137  and  _139
REMARK   55  A    between atoms: _139  and  _140
REMARK   56  A    between atoms: _143  and  _145
REMARK   57  A    between atoms: _145  and  _146
REMARK   58  A    between atoms: _145  and  _148
REMARK   59  A    between atoms: _148  and  _149
REMARK   60  A    between atoms: _152  and  _154
REMARK   61  A    between atoms: _154  and  _155
REMARK   62  A    between atoms: _158  and  _160
REMARK   63  A    between atoms: _160  and  _161
REMARK   64  A    between atoms: _160  and  _163
REMARK   65  A    between atoms: _163  and  _164
REMARK   66  A    between atoms: _170  and  _172
REMARK   67  A    between atoms: _172  and  _173
REMARK   68  A    between atoms: _172  and  _175
REMARK   69  A    between atoms: _175  and  _176
REMARK   70  A    between atoms: _179  and  _181
REMARK   71  A    between atoms: _181  and  _182
REMARK   72  A    between atoms: _181  and  _184
REMARK   73  A    between atoms: _184  and  _185
REMARK   74  A    between atoms: _190  and  _192
REMARK   75  A    between atoms: _192  and  _193
REMARK   76  A    between atoms: _192  and  _195
REMARK   77  A    between atoms: _195  and  _196
REMARK   78  A    between atoms: _200  and  FE_417
REMARK   79  A    between atoms: _201  and  _203
REMARK   80  A    between atoms: _203  and  _204
REMARK   81  A    between atoms: _203  and  _206
REMARK   82  A    between atoms: _206  and  _207
REMARK   83  A    between atoms: _213  and  _215
REMARK   84  A    between atoms: _215  and  _216
REMARK   85  A    between atoms: _215  and  _218
REMARK   86  A    between atoms: _218  and  _219
REMARK   87  A    between atoms: _219  and  _220
REMARK   88  A    between atoms: _222  and  _224
REMARK   89  A    between atoms: _224  and  _225
REMARK   90  A    between atoms: _224  and  _227
REMARK   91  A    between atoms: _227  and  _228
REMARK   92  A    between atoms: _230  and  _232
REMARK   93  A    between atoms: _232  and  _233
REMARK   94  A    between atoms: _232  and  _235
REMARK   95  A    between atoms: _235  and  _236
REMARK   96  A    between atoms: _236  and  _237
REMARK   97  A    between atoms: _237  and  _238
REMARK   98  A    between atoms: _247  and  _249
REMARK   99  A    between atoms: _249  and  _250
REMARK  100  A    between atoms: _249  and  _252
REMARK  101  A    between atoms: _252  and  _253
REMARK  102  A    between atoms: _258  and  _260
REMARK  103  A    between atoms: _260  and  _261
REMARK  104  A    between atoms: _260  and  _263
REMARK  105  A    between atoms: _263  and  _264
REMARK  106  A    between atoms: _267  and  _269
REMARK  107  A    between atoms: _269  and  _270
REMARK  108  A    between atoms: _269  and  _272
REMARK  109  A    between atoms: _272  and  _273
REMARK  110  A    between atoms: _278  and  _280
REMARK  111  A    between atoms: _280  and  _281
REMARK  112  A    between atoms: _280  and  _283
REMARK  113  A    between atoms: _283  and  _284
REMARK  114  A    between atoms: _287  and  _289
REMARK  115  A    between atoms: _289  and  _290
REMARK  116  A    between atoms: _289  and  _292
REMARK  117  A    between atoms: _292  and  _293
REMARK  118  A    between atoms: _298  and  _300
REMARK  119  A    between atoms: _300  and  _301
REMARK  120  A    between atoms: _300  and  _303
REMARK  121  A    between atoms: _303  and  _304
REMARK  122  A    between atoms: _304  and  _305
REMARK  123  A    between atoms: _307  and  _309
REMARK  124  A    between atoms: _309  and  _310
REMARK  125  A    between atoms: _309  and  _312
REMARK  126  A    between atoms: _312  and  _313
REMARK  127  A    between atoms: _315  and  _317
REMARK  128  A    between atoms: _317  and  _318
REMARK  129  A    between atoms: _317  and  _320
REMARK  130  A    between atoms: _320  and  _321
REMARK  131  A    between atoms: _326  and  _327
REMARK  132  A    between atoms: _329  and  _331
REMARK  133  A    between atoms: _331  and  _332
REMARK  134  A    between atoms: _331  and  _334
REMARK  135  A    between atoms: _334  and  _335
REMARK  136  A    between atoms: _335  and  _336
REMARK  137  A    between atoms: _339  and  _341
REMARK  138  A    between atoms: _341  and  _342
REMARK  139  A    between atoms: _341  and  _344
REMARK  140  A    between atoms: _344  and  _345
REMARK  141  A    between atoms: _345  and  _346
REMARK  142  A    between atoms: _346  and  _348
REMARK  143  A    between atoms: _348  and  FE_417
REMARK  144  A    between atoms: _349  and  _351
REMARK  145  A    between atoms: _351  and  _352
REMARK  146  A    between atoms: _355  and  _357
REMARK  147  A    between atoms: _357  and  _358
REMARK  148  A    between atoms: _357  and  _360
REMARK  149  A    between atoms: _360  and  _361
REMARK  150  A    between atoms: _366  and  _368
REMARK  151  A    between atoms: _368  and  _369
REMARK  152  A    between atoms: _368  and  _371
REMARK  153  A    between atoms: _371  and  _372
REMARK  154  A    between atoms: _375  and  _376
REMARK  155  A    between atoms: _381  and  _383
REMARK  156  A    between atoms: _383  and  _384
REMARK  157  A    between atoms: _383  and  _386
REMARK  158  A    between atoms: _386  and  _387
REMARK  159  A    between atoms: _389  and  _391
REMARK  160  A    between atoms: _391  and  _392
REMARK  161  A    between atoms: _391  and  _394
REMARK  162  A    between atoms: _394  and  _395
REMARK  163  A    between atoms: _400  and  _402
REMARK  164  A    between atoms: _402  and  _403
REMARK  165  A    between atoms: _402  and  _405
REMARK  166  A    between atoms: _405  and  _406
REMARK  167  A    between atoms: _406  and  _407
REMARK  168  A    between atoms: _407  and  _408
REMARK                            x       y       z     vdW  Elec       q    Type
REMARK                         _______ _______ _______ _____ _____    ______ ____
ROOT
ATOM      1  CA  ALA A   1      15.482 -14.212  66.480  0.00  0.00    +0.133 C 
ATOM      2  CB  ALA A   1      16.437 -13.938  67.622  0.00  0.00    +0.027 C 
ENDROOT
BRANCH   1   3
ATOM      3  N   ALA A   1      15.996 -13.606  65.256  0.00  0.00    -0.239 NA
ATOM      4  H   ALA A   1      16.806 -12.955  65.301  0.00  0.00    +0.142 HD
ENDBRANCH   1   3
BRANCH   1   5
ATOM      5  C   ALA A   1      14.110 -13.618  66.819  0.00  0.00    +0.224 C 
ATOM      6  O   ALA A   1      13.817 -12.474  66.450  0.00  0.00    -0.287 OA
ENDBRANCH   1   5
TORSDOF 2
REMARK  Name = ../refined-set-2016/1kmy/1kmy_pocket.pdb
REMARK  168 active torsions:
REMARK  status: ('A' for Active; 'I' for Inactive)
REMARK    1  A    between atoms: _1  and  _3
REMARK    2  A    between atoms: _3  and  _4
REMARK    3  A    between atoms: _3  and  _6
REMARK    4  A    between atoms: _6  and  _7
REMARK    5  A    between atoms: _11  and  FE_417
REMARK    6  A    between atoms: _12  and  _14
REMARK    7  A    between atoms: _14  and  _15
REMARK    8  A    between atoms: _14  and  _17
REMARK    9  A    between atoms: _17  and  _18
REMARK   10  A    between atoms: _24  and  _26
REMARK   11  A    between atoms: _26  and  _27
REMARK   12  A    between atoms: _26  and  _29
REMARK   13  A    between atoms: _32  and  _34
REMARK   14  A    between atoms: _34  and  _35
REMARK   15  A    between atoms: _34  and  _37
REMARK   16  A    between atoms: _37  and  _38
REMARK   17  A    between atoms: _38  and  _39
REMARK   18  A    between atoms: _39  and  _40
REMARK   19  A    between atoms: _49  and  _51
REMARK   20  A    between atoms: _51  and  _52
REMARK   21  A    between atoms: _51  and  _54
REMARK   22  A    between atoms: _56  and  _58
REMARK   23  A    between atoms: _58  and  _59
REMARK   24  A    between atoms: _58  and  _61
REMARK   25  A    between atoms: _61  and  _62
REMARK   26  A    between atoms: _65  and  _67
REMARK   27  A    between atoms: _67  and  _68
REMARK   28  A    between atoms: _67  and  _70
REMARK   29  A    between atoms: _70  and  _71
REMARK   30  A    between atoms: _74  and  _76
REMARK   31  A    between atoms: _76  and  _77
REMARK   32  A    between atoms: _76  and  _79
REMARK   33  A    between atoms: _79  and  _80
REMARK   34  A    between atoms: _80  and  _81
REMARK   35  A    between atoms: _83  and  _85
REMARK   36  A    between atoms: _85  and  _86
REMARK   37  A    between atoms: _89  and  _91
REMARK   38  A    between atoms: _91  and  _92
REMARK   39  A    between atoms: _91  and  _94
REMARK   40  A    between atoms: _94  and  _95
REMARK   41  A    between atoms: _100  and  _101
REMARK   42  A    between atoms: _103  and  _105
REMARK   43  A    between atoms: _105  and  _106
REMARK   44  A    between atoms: _105  and  _108
REMARK   45  A    between atoms: _108  and  _109
REMARK   46  A    between atoms: _115  and  _117
REMARK   47  A    between atoms: _117  and  _118
REMARK   48  A    between atoms: _117  and  _120
REMARK   49  A    between atoms: _120  and  _121
REMARK   50  A    between atoms: _126  and  _128
REMARK   51  A    between atoms: _128  and  _129
REMARK   52  A    between atoms: _128  and  _131
REMARK   53  A    between atoms: _131  and  _132
REMARK   54  A    between atoms: _137  and  _139
REMARK   55  A    between atoms: _139  and  _140
REMARK   56  A    between atoms: _143  and  _145
REMARK   57  A    between atoms: _145  and  _146
REMARK   58  A    between atoms: _145  and  _148
REMARK   59  A    between atoms: _148  and  _149
REMARK   60  A    between atoms: _152  and  _154
REMARK   61  A    between atoms: _154  and  _155
REMARK   62  A    between atoms: _158  and  _160
REMARK   63  A    between atoms: _160  and  _161
REMARK   64  A    between atoms: _160  and  _163
REMARK   65  A    between atoms: _163  and  _164
REMARK   66  A    between atoms: _170  and  _172
REMARK   67  A    between atoms: _172  and  _173
REMARK   68  A    between atoms: _172  and  _175
REMARK   69  A    between atoms: _175  and  _176
REMARK   70  A    between atoms: _179  and  _181
REMARK   71  A    between atoms: _181  and  _182
REMARK   72  A    between atoms: _181  and  _184
REMARK   73  A    between atoms: _184  and  _185
REMARK   74  A    between atoms: _190  and  _192
REMARK   75  A    between atoms: _192  and  _193
REMARK   76  A    between atoms: _192  and  _195
REMARK   77  A    between atoms: _195  and  _196
REMARK   78  A    between atoms: _200  and  FE_417
REMARK   79  A    between atoms: _201  and  _203
REMARK   80  A    between atoms: _203  and  _204
REMARK   81  A    between atoms: _203  and  _206
REMARK   82  A    between atoms: _206  and  _207
REMARK   83  A    between atoms: _213  and  _215
REMARK   84  A    between atoms: _215  and  _216
REMARK   85  A    between atoms: _215  and  _218
REMARK   86  A    between atoms: _218  and  _219
REMARK   87  A    between atoms: _219  and  _220
REMARK   88  A    between atoms: _222  and  _224
REMARK   89  A    between atoms: _224  and  _225
REMARK   90  A    between atoms: _224  and  _227
REMARK   91  A    between atoms: _227  and  _228
REMARK   92  A    between atoms: _230  and  _232
REMARK   93  A    between atoms: _232  and  _233
REMARK   94  A    between atoms: _232  and  _235
REMARK   95  A    between atoms: _235  and  _236
REMARK   96  A    between atoms: _236  and  _237
REMARK   97  A    between atoms: _237  and  _238
REMARK   98  A    between atoms: _247  and  _249
REMARK   99  A    between atoms: _249  and  _250
REMARK  100  A    between atoms: _249  and  _252
REMARK  101  A    between atoms: _252  and  _253
REMARK  102  A    between atoms: _258  and  _260
REMARK  103  A    between atoms: _260  and  _261
REMARK  104  A    between atoms: _260  and  _263
REMARK  105  A    between atoms: _263  and  _264
REMARK  106  A    between atoms: _267  and  _269
REMARK  107  A    between atoms: _269  and  _270
REMARK  108  A    between atoms: _269  and  _272
REMARK  109  A    between atoms: _272  and  _273
REMARK  110  A    between atoms: _278  and  _280
REMARK  111  A    between atoms: _280  and  _281
REMARK  112  A    between atoms: _280  and  _283
REMARK  113  A    between atoms: _283  and  _284
REMARK  114  A    between atoms: _287  and  _289
REMARK  115  A    between atoms: _289  and  _290
REMARK  116  A    between atoms: _289  and  _292
REMARK  117  A    between atoms: _292  and  _293
REMARK  118  A    between atoms: _298  and  _300
REMARK  119  A    between atoms: _300  and  _301
REMARK  120  A    between atoms: _300  and  _303
REMARK  121  A    between atoms: _303  and  _304
REMARK  122  A    between atoms: _304  and  _305
REMARK  123  A    between atoms: _307  and  _309
REMARK  124  A    between atoms: _309  and  _310
REMARK  125  A    between atoms: _309  and  _312
REMARK  126  A    between atoms: _312  and  _313
REMARK  127  A    between atoms: _315  and  _317
REMARK  128  A    between atoms: _317  and  _318
REMARK  129  A    between atoms: _317  and  _320
REMARK  130  A    between atoms: _320  and  _321
REMARK  131  A    between atoms: _326  and  _327
REMARK  132  A    between atoms: _329  and  _331
REMARK  133  A    between atoms: _331  and  _332
REMARK  134  A    between atoms: _331  and  _334
REMARK  135  A    between atoms: _334  and  _335
REMARK  136  A    between atoms: _335  and  _336
REMARK  137  A    between atoms: _339  and  _341
REMARK  138  A    between atoms: _341  and  _342
REMARK  139  A    between atoms: _341  and  _344
REMARK  140  A    between atoms: _344  and  _345
REMARK  141  A    between atoms: _345  and  _346
REMARK  142  A    between atoms: _346  and  _348
REMARK  143  A    between atoms: _348  and  FE_417
REMARK  144  A    between atoms: _349  and  _351
REMARK  145  A    between atoms: _351  and  _352
REMARK  146  A    between atoms: _355  and  _357
REMARK  147  A    between atoms: _357  and  _358
REMARK  148  A    between atoms: _357  and  _360
REMARK  149  A    between atoms: _360  and  _361
REMARK  150  A    between atoms: _366  and  _368
REMARK  151  A    between atoms: _368  and  _369
REMARK  152  A    between atoms: _368  and  _371
REMARK  153  A    between atoms: _371  and  _372
REMARK  154  A    between atoms: _375  and  _376
REMARK  155  A    between atoms: _381  and  _383
REMARK  156  A    between atoms: _383  and  _384
REMARK  157  A    between atoms: _383  and  _386
REMARK  158  A    between atoms: _386  and  _387
REMARK  159  A    between atoms: _389  and  _391
REMARK  160  A    between atoms: _391  and  _392
REMARK  161  A    between atoms: _391  and  _394
REMARK  162  A    between atoms: _394  and  _395
REMARK  163  A    between atoms: _400  and  _402
REMARK  164  A    between atoms: _402  and  _403
REMARK  165  A    between atoms: _402  and  _405
REMARK  166  A    between atoms: _405  and  _406
REMARK  167  A    between atoms: _406  and  _407
REMARK  168  A    between atoms: _407  and  _408
REMARK                            x       y       z     vdW  Elec       q    Type
REMARK                         _______ _______ _______ _____ _____    ______ ____
ROOT
ATOM      1  CB  HIS A   1      13.246 -27.382  73.836  0.00  0.00    +0.072 C 
ENDROOT
BRANCH   1   2
ATOM      2  CG  HIS A   1      12.505 -26.107  73.575  0.00  0.00    +0.082 A 
ATOM      3  CD2 HIS A   1      12.392 -24.974  74.308  0.00  0.00    +0.115 A 
ATOM      4  NE2 HIS A   1      11.668 -24.077  73.560  0.00  0.00    -0.221 NA
ATOM      5  CE1 HIS A   1      11.341 -24.639  72.410  0.00  0.00    +0.199 A 
ATOM      6  ND1 HIS A   1      11.832 -25.866  72.395  0.00  0.00    -0.227 NA
ENDBRANCH   1   2
BRANCH   1   7
ATOM      7  CA  HIS A   1      12.500 -28.386  74.724  0.00  0.00    +0.139 C 
BRANCH   7   8
ATOM      8  N   HIS A   1      12.206 -27.802  76.020  0.00  0.00    -0.239 NA
ATOM      9  H   HIS A   1      12.989 -27.609  76.677  0.00  0.00    +0.142 HD
ENDBRANCH   7   8
BRANCH   7  10
ATOM     10  C   HIS A   1      13.459 -29.527  74.984  0.00  0.00    +0.224 C 
ATOM     11  O   HIS A   1      14.161 -29.526  75.995  0.00  0.00    -0.287 OA
ENDBRANCH   7  10
ENDBRANCH   1   7
TORSDOF 4
REMARK  Name = ../refined-set-2016/1kmy/1kmy_pocket.pdb
REMARK  168 active torsions:
REMARK  status: ('A' for Active; 'I' for Inactive)
REMARK    1  A    between atoms: _1  and  _3
REMARK    2  A    between atoms: _3  and  _4
REMARK    3  A    between atoms: _3  and  _6
REMARK    4  A    between atoms: _6  and  _7
REMARK    5  A    between atoms: _11  and  FE_417
REMARK    6  A    between atoms: _12  and  _14
REMARK    7  A    between atoms: _14  and  _15
REMARK    8  A    between atoms: _14  and  _17
REMARK    9  A    between atoms: _17  and  _18
REMARK   10  A    between atoms: _24  and  _26
REMARK   11  A    between atoms: _26  and  _27
REMARK   12  A    between atoms: _26  and  _29
REMARK   13  A    between atoms: _32  and  _34
REMARK   14  A    between atoms: _34  and  _35
REMARK   15  A    between atoms: _34  and  _37
REMARK   16  A    between atoms: _37  and  _38
REMARK   17  A    between atoms: _38  and  _39
REMARK   18  A    between atoms: _39  and  _40
REMARK   19  A    between atoms: _49  and  _51
REMARK   20  A    between atoms: _51  and  _52
REMARK   21  A    between atoms: _51  and  _54
REMARK   22  A    between atoms: _56  and  _58
REMARK   23  A    between atoms: _58  and  _59
REMARK   24  A    between atoms: _58  and  _61
REMARK   25  A    between atoms: _61  and  _62
REMARK   26  A    between atoms: _65  and  _67
REMARK   27  A    between atoms: _67  and  _68
REMARK   28  A    between atoms: _67  and  _70
REMARK   29  A    between atoms: _70  and  _71
REMARK   30  A    between atoms: _74  and  _76
REMARK   31  A    between atoms: _76  and  _77
REMARK   32  A    between atoms: _76  and  _79
REMARK   33  A    between atoms: _79  and  _80
REMARK   34  A    between atoms: _80  and  _81
REMARK   35  A    between atoms: _83  and  _85
REMARK   36  A    between atoms: _85  and  _86
REMARK   37  A    between atoms: _89  and  _91
REMARK   38  A    between atoms: _91  and  _92
REMARK   39  A    between atoms: _91  and  _94
REMARK   40  A    between atoms: _94  and  _95
REMARK   41  A    between atoms: _100  and  _101
REMARK   42  A    between atoms: _103  and  _105
REMARK   43  A    between atoms: _105  and  _106
REMARK   44  A    between atoms: _105  and  _108
REMARK   45  A    between atoms: _108  and  _109
REMARK   46  A    between atoms: _115  and  _117
REMARK   47  A    between atoms: _117  and  _118
REMARK   48  A    between atoms: _117  and  _120
REMARK   49  A    between atoms: _120  and  _121
REMARK   50  A    between atoms: _126  and  _128
REMARK   51  A    between atoms: _128  and  _129
REMARK   52  A    between atoms: _128  and  _131
REMARK   53  A    between atoms: _131  and  _132
REMARK   54  A    between atoms: _137  and  _139
REMARK   55  A    between atoms: _139  and  _140
REMARK   56  A    between atoms: _143  and  _145
REMARK   57  A    between atoms: _145  and  _146
REMARK   58  A    between atoms: _145  and  _148
REMARK   59  A    between atoms: _148  and  _149
REMARK   60  A    between atoms: _152  and  _154
REMARK   61  A    between atoms: _154  and  _155
REMARK   62  A    between atoms: _158  and  _160
REMARK   63  A    between atoms: _160  and  _161
REMARK   64  A    between atoms: _160  and  _163
REMARK   65  A    between atoms: _163  and  _164
REMARK   66  A    between atoms: _170  and  _172
REMARK   67  A    between atoms: _172  and  _173
REMARK   68  A    between atoms: _172  and  _175
REMARK   69  A    between atoms: _175  and  _176
REMARK   70  A    between atoms: _179  and  _181
REMARK   71  A    between atoms: _181  and  _182
REMARK   72  A    between atoms: _181  and  _184
REMARK   73  A    between atoms: _184  and  _185
REMARK   74  A    between atoms: _190  and  _192
REMARK   75  A    between atoms: _192  and  _193
REMARK   76  A    between atoms: _192  and  _195
REMARK   77  A    between atoms: _195  and  _196
REMARK   78  A    between atoms: _200  and  FE_417
REMARK   79  A    between atoms: _201  and  _203
REMARK   80  A    between atoms: _203  and  _204
REMARK   81  A    between atoms: _203  and  _206
REMARK   82  A    between atoms: _206  and  _207
REMARK   83  A    between atoms: _213  and  _215
REMARK   84  A    between atoms: _215  and  _216
REMARK   85  A    between atoms: _215  and  _218
REMARK   86  A    between atoms: _218  and  _219
REMARK   87  A    between atoms: _219  and  _220
REMARK   88  A    between atoms: _222  and  _224
REMARK   89  A    between atoms: _224  and  _225
REMARK   90  A    between atoms: _224  and  _227
REMARK   91  A    between atoms: _227  and  _228
REMARK   92  A    between atoms: _230  and  _232
REMARK   93  A    between atoms: _232  and  _233
REMARK   94  A    between atoms: _232  and  _235
REMARK   95  A    between atoms: _235  and  _236
REMARK   96  A    between atoms: _236  and  _237
REMARK   97  A    between atoms: _237  and  _238
REMARK   98  A    between atoms: _247  and  _249
REMARK   99  A    between atoms: _249  and  _250
REMARK  100  A    between atoms: _249  and  _252
REMARK  101  A    between atoms: _252  and  _253
REMARK  102  A    between atoms: _258  and  _260
REMARK  103  A    between atoms: _260  and  _261
REMARK  104  A    between atoms: _260  and  _263
REMARK  105  A    between atoms: _263  and  _264
REMARK  106  A    between atoms: _267  and  _269
REMARK  107  A    between atoms: _269  and  _270
REMARK  108  A    between atoms: _269  and  _272
REMARK  109  A    between atoms: _272  and  _273
REMARK  110  A    between atoms: _278  and  _280
REMARK  111  A    between atoms: _280  and  _281
REMARK  112  A    between atoms: _280  and  _283
REMARK  113  A    between atoms: _283  and  _284
REMARK  114  A    between atoms: _287  and  _289
REMARK  115  A    between atoms: _289  and  _290
REMARK  116  A    between atoms: _289  and  _292
REMARK  117  A    between atoms: _292  and  _293
REMARK  118  A    between atoms: _298  and  _300
REMARK  119  A    between atoms: _300  and  _301
REMARK  120  A    between atoms: _300  and  _303
REMARK  121  A    between atoms: _303  and  _304
REMARK  122  A    between atoms: _304  and  _305
REMARK  123  A    between atoms: _307  and  _309
REMARK  124  A    between atoms: _309  and  _310
REMARK  125  A    between atoms: _309  and  _312
REMARK  126  A    between atoms: _312  and  _313
REMARK  127  A    between atoms: _315  and  _317
REMARK  128  A    between atoms: _317  and  _318
REMARK  129  A    between atoms: _317  and  _320
REMARK  130  A    between atoms: _320  and  _321
REMARK  131  A    between atoms: _326  and  _327
REMARK  132  A    between atoms: _329  and  _331
REMARK  133  A    between atoms: _331  and  _332
REMARK  134  A    between atoms: _331  and  _334
REMARK  135  A    between atoms: _334  and  _335
REMARK  136  A    between atoms: _335  and  _336
REMARK  137  A    between atoms: _339  and  _341
REMARK  138  A    between atoms: _341  and  _342
REMARK  139  A    between atoms: _341  and  _344
REMARK  140  A    between atoms: _344  and  _345
REMARK  141  A    between atoms: _345  and  _346
REMARK  142  A    between atoms: _346  and  _348
REMARK  143  A    between atoms: _348  and  FE_417
REMARK  144  A    between atoms: _349  and  _351
REMARK  145  A    between atoms: _351  and  _352
REMARK  146  A    between atoms: _355  and  _357
REMARK  147  A    between atoms: _357  and  _358
REMARK  148  A    between atoms: _357  and  _360
REMARK  149  A    between atoms: _360  and  _361
REMARK  150  A    between atoms: _366  and  _368
REMARK  151  A    between atoms: _368  and  _369
REMARK  152  A    between atoms: _368  and  _371
REMARK  153  A    between atoms: _371  and  _372
REMARK  154  A    between atoms: _375  and  _376
REMARK  155  A    between atoms: _381  and  _383
REMARK  156  A    between atoms: _383  and  _384
REMARK  157  A    between atoms: _383  and  _386
REMARK  158  A    between atoms: _386  and  _387
REMARK  159  A    between atoms: _389  and  _391
REMARK  160  A    between atoms: _391  and  _392
REMARK  161  A    between atoms: _391  and  _394
REMARK  162  A    between atoms: _394  and  _395
REMARK  163  A    between atoms: _400  and  _402
REMARK  164  A    between atoms: _402  and  _403
REMARK  165  A    between atoms: _402  and  _405
REMARK  166  A    between atoms: _405  and  _406
REMARK  167  A    between atoms: _406  and  _407
REMARK  168  A    between atoms: _407  and  _408
REMARK                            x       y       z     vdW  Elec       q    Type
REMARK                         _______ _______ _______ _____ _____    ______ ____
ROOT
ATOM      1  C   SER A   1      16.702 -28.685  71.105  0.00  0.00    +0.000 C 
ATOM      2  O   SER A   1      15.777 -27.887  71.303  0.00  0.00    +0.000 OA
ATOM      3  N   PRO A   2      17.956 -28.280  70.842  0.00  0.00    +0.000 N 
ATOM      4  CD  PRO A   2      19.189 -29.089  70.963  0.00  0.00    +0.000 C 
ATOM      5  CG  PRO A   2      20.302 -28.062  70.669  0.00  0.00    +0.000 C 
ATOM      6  CB  PRO A   2      19.735 -26.790  71.200  0.00  0.00    +0.000 C 
ATOM      7  CA  PRO A   2      18.276 -26.853  70.734  0.00  0.00    +0.000 C 
ENDROOT
BRANCH   7   8
ATOM      8  C   PRO A   2      18.141 -26.315  69.321  0.00  0.00    +0.000 C 
ATOM      9  O   PRO A   2      18.255 -25.114  69.098  0.00  0.00    +0.000 OA
ATOM     10  N   SER A   3      17.861 -27.189  68.352  0.00  0.00    +0.000 N 
ATOM     11  H   SER A   3      17.724 -28.193  68.584  0.00  0.00    +0.000 HD
BRANCH  10  12
ATOM     12  CA  SER A   3      17.747 -26.743  66.973  0.00  0.00    +0.000 C 
BRANCH  12  13
ATOM     13  C   SER A   3      16.641 -27.433  66.198  0.00  0.00    +0.000 C 
ATOM     14  O   SER A   3      16.429 -28.633  66.362  0.00  0.00    +0.000 OA
ENDBRANCH  12  13
BRANCH  12  15
ATOM     15  CB  SER A   3      19.082 -26.969  66.254  0.00  0.00    +0.000 C 
BRANCH  15  16
ATOM     16  OG  SER A   3      20.138 -26.305  66.936  0.00  0.00    +0.000 OA
ATOM     17  H   SER A   3      19.950 -25.333  66.966  0.00  0.00    +0.000 HD
ENDBRANCH  15  16
ENDBRANCH  12  15
ENDBRANCH  10  12
ENDBRANCH   7   8
BRANCH   1  18
ATOM     18  CA  SER A   1      16.458 -30.184  71.192  0.00  0.00    +0.000 C 
BRANCH  18  19
ATOM     19  N   SER A   1      15.457 -30.446  72.224  0.00  0.00    +0.000 NA
ATOM     20  H   SER A   1      14.624 -29.826  72.281  0.00  0.00    +0.000 HD
ENDBRANCH  18  19
BRANCH  18  21
ATOM     21  CB  SER A   1      15.975 -30.688  69.830  0.00  0.00    +0.000 C 
BRANCH  21  22
ATOM     22  OG  SER A   1      15.783 -32.089  69.845  0.00  0.00    +0.000 OA
ATOM     23  H   SER A   1      15.471 -32.388  68.954  0.00  0.00    +0.000 HD
ENDBRANCH  21  22
ENDBRANCH  18  21
ENDBRANCH   1  18
TORSDOF 9
REMARK  Name = ../refined-set-2016/1kmy/1kmy_pocket.pdb
REMARK  168 active torsions:
REMARK  status: ('A' for Active; 'I' for Inactive)
REMARK    1  A    between atoms: _1  and  _3
REMARK    2  A    between atoms: _3  and  _4
REMARK    3  A    between atoms: _3  and  _6
REMARK    4  A    between atoms: _6  and  _7
REMARK    5  A    between atoms: _11  and  FE_417
REMARK    6  A    between atoms: _12  and  _14
REMARK    7  A    between atoms: _14  and  _15
REMARK    8  A    between atoms: _14  and  _17
REMARK    9  A    between atoms: _17  and  _18
REMARK   10  A    between atoms: _24  and  _26
REMARK   11  A    between atoms: _26  and  _27
REMARK   12  A    between atoms: _26  and  _29
REMARK   13  A    between atoms: _32  and  _34
REMARK   14  A    between atoms: _34  and  _35
REMARK   15  A    between atoms: _34  and  _37
REMARK   16  A    between atoms: _37  and  _38
REMARK   17  A    between atoms: _38  and  _39
REMARK   18  A    between atoms: _39  and  _40
REMARK   19  A    between atoms: _49  and  _51
REMARK   20  A    between atoms: _51  and  _52
REMARK   21  A    between atoms: _51  and  _54
REMARK   22  A    between atoms: _56  and  _58
REMARK   23  A    between atoms: _58  and  _59
REMARK   24  A    between atoms: _58  and  _61
REMARK   25  A    between atoms: _61  and  _62
REMARK   26  A    between atoms: _65  and  _67
REMARK   27  A    between atoms: _67  and  _68
REMARK   28  A    between atoms: _67  and  _70
REMARK   29  A    between atoms: _70  and  _71
REMARK   30  A    between atoms: _74  and  _76
REMARK   31  A    between atoms: _76  and  _77
REMARK   32  A    between atoms: _76  and  _79
REMARK   33  A    between atoms: _79  and  _80
REMARK   34  A    between atoms: _80  and  _81
REMARK   35  A    between atoms: _83  and  _85
REMARK   36  A    between atoms: _85  and  _86
REMARK   37  A    between atoms: _89  and  _91
REMARK   38  A    between atoms: _91  and  _92
REMARK   39  A    between atoms: _91  and  _94
REMARK   40  A    between atoms: _94  and  _95
REMARK   41  A    between atoms: _100  and  _101
REMARK   42  A    between atoms: _103  and  _105
REMARK   43  A    between atoms: _105  and  _106
REMARK   44  A    between atoms: _105  and  _108
REMARK   45  A    between atoms: _108  and  _109
REMARK   46  A    between atoms: _115  and  _117
REMARK   47  A    between atoms: _117  and  _118
REMARK   48  A    between atoms: _117  and  _120
REMARK   49  A    between atoms: _120  and  _121
REMARK   50  A    between atoms: _126  and  _128
REMARK   51  A    between atoms: _128  and  _129
REMARK   52  A    between atoms: _128  and  _131
REMARK   53  A    between atoms: _131  and  _132
REMARK   54  A    between atoms: _137  and  _139
REMARK   55  A    between atoms: _139  and  _140
REMARK   56  A    between atoms: _143  and  _145
REMARK   57  A    between atoms: _145  and  _146
REMARK   58  A    between atoms: _145  and  _148
REMARK   59  A    between atoms: _148  and  _149
REMARK   60  A    between atoms: _152  and  _154
REMARK   61  A    between atoms: _154  and  _155
REMARK   62  A    between atoms: _158  and  _160
REMARK   63  A    between atoms: _160  and  _161
REMARK   64  A    between atoms: _160  and  _163
REMARK   65  A    between atoms: _163  and  _164
REMARK   66  A    between atoms: _170  and  _172
REMARK   67  A    between atoms: _172  and  _173
REMARK   68  A    between atoms: _172  and  _175
REMARK   69  A    between atoms: _175  and  _176
REMARK   70  A    between atoms: _179  and  _181
REMARK   71  A    between atoms: _181  and  _182
REMARK   72  A    between atoms: _181  and  _184
REMARK   73  A    between atoms: _184  and  _185
REMARK   74  A    between atoms: _190  and  _192
REMARK   75  A    between atoms: _192  and  _193
REMARK   76  A    between atoms: _192  and  _195
REMARK   77  A    between atoms: _195  and  _196
REMARK   78  A    between atoms: _200  and  FE_417
REMARK   79  A    between atoms: _201  and  _203
REMARK   80  A    between atoms: _203  and  _204
REMARK   81  A    between atoms: _203  and  _206
REMARK   82  A    between atoms: _206  and  _207
REMARK   83  A    between atoms: _213  and  _215
REMARK   84  A    between atoms: _215  and  _216
REMARK   85  A    between atoms: _215  and  _218
REMARK   86  A    between atoms: _218  and  _219
REMARK   87  A    between atoms: _219  and  _220
REMARK   88  A    between atoms: _222  and  _224
REMARK   89  A    between atoms: _224  and  _225
REMARK   90  A    between atoms: _224  and  _227
REMARK   91  A    between atoms: _227  and  _228
REMARK   92  A    between atoms: _230  and  _232
REMARK   93  A    between atoms: _232  and  _233
REMARK   94  A    between atoms: _232  and  _235
REMARK   95  A    between atoms: _235  and  _236
REMARK   96  A    between atoms: _236  and  _237
REMARK   97  A    between atoms: _237  and  _238
REMARK   98  A    between atoms: _247  and  _249
REMARK   99  A    between atoms: _249  and  _250
REMARK  100  A    between atoms: _249  and  _252
REMARK  101  A    between atoms: _252  and  _253
REMARK  102  A    between atoms: _258  and  _260
REMARK  103  A    between atoms: _260  and  _261
REMARK  104  A    between atoms: _260  and  _263
REMARK  105  A    between atoms: _263  and  _264
REMARK  106  A    between atoms: _267  and  _269
REMARK  107  A    between atoms: _269  and  _270
REMARK  108  A    between atoms: _269  and  _272
REMARK  109  A    between atoms: _272  and  _273
REMARK  110  A    between atoms: _278  and  _280
REMARK  111  A    between atoms: _280  and  _281
REMARK  112  A    between atoms: _280  and  _283
REMARK  113  A    between atoms: _283  and  _284
REMARK  114  A    between atoms: _287  and  _289
REMARK  115  A    between atoms: _289  and  _290
REMARK  116  A    between atoms: _289  and  _292
REMARK  117  A    between atoms: _292  and  _293
REMARK  118  A    between atoms: _298  and  _300
REMARK  119  A    between atoms: _300  and  _301
REMARK  120  A    between atoms: _300  and  _303
REMARK  121  A    between atoms: _303  and  _304
REMARK  122  A    between atoms: _304  and  _305
REMARK  123  A    between atoms: _307  and  _309
REMARK  124  A    between atoms: _309  and  _310
REMARK  125  A    between atoms: _309  and  _312
REMARK  126  A    between atoms: _312  and  _313
REMARK  127  A    between atoms: _315  and  _317
REMARK  128  A    between atoms: _317  and  _318
REMARK  129  A    between atoms: _317  and  _320
REMARK  130  A    between atoms: _320  and  _321
REMARK  131  A    between atoms: _326  and  _327
REMARK  132  A    between atoms: _329  and  _331
REMARK  133  A    between atoms: _331  and  _332
REMARK  134  A    between atoms: _331  and  _334
REMARK  135  A    between atoms: _334  and  _335
REMARK  136  A    between atoms: _335  and  _336
REMARK  137  A    between atoms: _339  and  _341
REMARK  138  A    between atoms: _341  and  _342
REMARK  139  A    between atoms: _341  and  _344
REMARK  140  A    between atoms: _344  and  _345
REMARK  141  A    between atoms: _345  and  _346
REMARK  142  A    between atoms: _346  and  _348
REMARK  143  A    between atoms: _348  and  FE_417
REMARK  144  A    between atoms: _349  and  _351
REMARK  145  A    between atoms: _351  and  _352
REMARK  146  A    between atoms: _355  and  _357
REMARK  147  A    between atoms: _357  and  _358
REMARK  148  A    between atoms: _357  and  _360
REMARK  149  A    between atoms: _360  and  _361
REMARK  150  A    between atoms: _366  and  _368
REMARK  151  A    between atoms: _368  and  _369
REMARK  152  A    between atoms: _368  and  _371
REMARK  153  A    between atoms: _371  and  _372
REMARK  154  A    between atoms: _375  and  _376
REMARK  155  A    between atoms: _381  and  _383
REMARK  156  A    between atoms: _383  and  _384
REMARK  157  A    between atoms: _383  and  _386
REMARK  158  A    between atoms: _386  and  _387
REMARK  159  A    between atoms: _389  and  _391
REMARK  160  A    between atoms: _391  and  _392
REMARK  161  A    between atoms: _391  and  _394
REMARK  162  A    between atoms: _394  and  _395
REMARK  163  A    between atoms: _400  and  _402
REMARK  164  A    between atoms: _402  and  _403
REMARK  165  A    between atoms: _402  and  _405
REMARK  166  A    between atoms: _405  and  _406
REMARK  167  A    between atoms: _406  and  _407
REMARK  168  A    between atoms: _407  and  _408
REMARK                            x       y       z     vdW  Elec       q    Type
REMARK                         _______ _______ _______ _____ _____    ______ ____
ROOT
ATOM      1  CB  HIS A   1      22.745 -26.360  64.578  0.00  0.00    +0.000 C 
ENDROOT
BRANCH   1   2
ATOM      2  CG  HIS A   1      22.449 -24.903  64.690  0.00  0.00    +0.000 A 
ATOM      3  ND1 HIS A   1      21.362 -24.424  65.379  0.00  0.00    +0.000 NA
ATOM      4  CE1 HIS A   1      21.370 -23.101  65.349  0.00  0.00    +0.000 A 
ATOM      5  NE2 HIS A   1      22.425 -22.709  64.657  0.00  0.00    +0.000 NA
ATOM      6  CD2 HIS A   1      23.114 -23.817  64.230  0.00  0.00    +0.000 A 
ENDBRANCH   1   2
BRANCH   1   7
ATOM      7  CA  HIS A   1      23.515 -26.726  63.314  0.00  0.00    +0.000 C 
BRANCH   7   8
ATOM      8  N   HIS A   1      22.638 -26.727  62.147  0.00  0.00    +0.000 NA
ATOM      9  H   HIS A   1      22.789 -26.017  61.403  0.00  0.00    +0.000 HD
ENDBRANCH   7   8
BRANCH   7  10
ATOM     10  C   HIS A   1      24.238 -28.064  63.481  0.00  0.00    +0.000 C 
ATOM     11  O   HIS A   1      24.401 -28.572  64.585  0.00  0.00    +0.000 OA
ENDBRANCH   7  10
ENDBRANCH   1   7
TORSDOF 4
REMARK  Name = ../refined-set-2016/1kmy/1kmy_pocket.pdb
REMARK  168 active torsions:
REMARK  status: ('A' for Active; 'I' for Inactive)
REMARK    1  A    between atoms: _1  and  _3
REMARK    2  A    between atoms: _3  and  _4
REMARK    3  A    between atoms: _3  and  _6
REMARK    4  A    between atoms: _6  and  _7
REMARK    5  A    between atoms: _11  and  FE_417
REMARK    6  A    between atoms: _12  and  _14
REMARK    7  A    between atoms: _14  and  _15
REMARK    8  A    between atoms: _14  and  _17
REMARK    9  A    between atoms: _17  and  _18
REMARK   10  A    between atoms: _24  and  _26
REMARK   11  A    between atoms: _26  and  _27
REMARK   12  A    between atoms: _26  and  _29
REMARK   13  A    between atoms: _32  and  _34
REMARK   14  A    between atoms: _34  and  _35
REMARK   15  A    between atoms: _34  and  _37
REMARK   16  A    between atoms: _37  and  _38
REMARK   17  A    between atoms: _38  and  _39
REMARK   18  A    between atoms: _39  and  _40
REMARK   19  A    between atoms: _49  and  _51
REMARK   20  A    between atoms: _51  and  _52
REMARK   21  A    between atoms: _51  and  _54
REMARK   22  A    between atoms: _56  and  _58
REMARK   23  A    between atoms: _58  and  _59
REMARK   24  A    between atoms: _58  and  _61
REMARK   25  A    between atoms: _61  and  _62
REMARK   26  A    between atoms: _65  and  _67
REMARK   27  A    between atoms: _67  and  _68
REMARK   28  A    between atoms: _67  and  _70
REMARK   29  A    between atoms: _70  and  _71
REMARK   30  A    between atoms: _74  and  _76
REMARK   31  A    between atoms: _76  and  _77
REMARK   32  A    between atoms: _76  and  _79
REMARK   33  A    between atoms: _79  and  _80
REMARK   34  A    between atoms: _80  and  _81
REMARK   35  A    between atoms: _83  and  _85
REMARK   36  A    between atoms: _85  and  _86
REMARK   37  A    between atoms: _89  and  _91
REMARK   38  A    between atoms: _91  and  _92
REMARK   39  A    between atoms: _91  and  _94
REMARK   40  A    between atoms: _94  and  _95
REMARK   41  A    between atoms: _100  and  _101
REMARK   42  A    between atoms: _103  and  _105
REMARK   43  A    between atoms: _105  and  _106
REMARK   44  A    between atoms: _105  and  _108
REMARK   45  A    between atoms: _108  and  _109
REMARK   46  A    between atoms: _115  and  _117
REMARK   47  A    between atoms: _117  and  _118
REMARK   48  A    between atoms: _117  and  _120
REMARK   49  A    between atoms: _120  and  _121
REMARK   50  A    between atoms: _126  and  _128
REMARK   51  A    between atoms: _128  and  _129
REMARK   52  A    between atoms: _128  and  _131
REMARK   53  A    between atoms: _131  and  _132
REMARK   54  A    between atoms: _137  and  _139
REMARK   55  A    between atoms: _139  and  _140
REMARK   56  A    between atoms: _143  and  _145
REMARK   57  A    between atoms: _145  and  _146
REMARK   58  A    between atoms: _145  and  _148
REMARK   59  A    between atoms: _148  and  _149
REMARK   60  A    between atoms: _152  and  _154
REMARK   61  A    between atoms: _154  and  _155
REMARK   62  A    between atoms: _158  and  _160
REMARK   63  A    between atoms: _160  and  _161
REMARK   64  A    between atoms: _160  and  _163
REMARK   65  A    between atoms: _163  and  _164
REMARK   66  A    between atoms: _170  and  _172
REMARK   67  A    between atoms: _172  and  _173
REMARK   68  A    between atoms: _172  and  _175
REMARK   69  A    between atoms: _175  and  _176
REMARK   70  A    between atoms: _179  and  _181
REMARK   71  A    between atoms: _181  and  _182
REMARK   72  A    between atoms: _181  and  _184
REMARK   73  A    between atoms: _184  and  _185
REMARK   74  A    between atoms: _190  and  _192
REMARK   75  A    between atoms: _192  and  _193
REMARK   76  A    between atoms: _192  and  _195
REMARK   77  A    between atoms: _195  and  _196
REMARK   78  A    between atoms: _200  and  FE_417
REMARK   79  A    between atoms: _201  and  _203
REMARK   80  A    between atoms: _203  and  _204
REMARK   81  A    between atoms: _203  and  _206
REMARK   82  A    between atoms: _206  and  _207
REMARK   83  A    between atoms: _213  and  _215
REMARK   84  A    between atoms: _215  and  _216
REMARK   85  A    between atoms: _215  and  _218
REMARK   86  A    between atoms: _218  and  _219
REMARK   87  A    between atoms: _219  and  _220
REMARK   88  A    between atoms: _222  and  _224
REMARK   89  A    between atoms: _224  and  _225
REMARK   90  A    between atoms: _224  and  _227
REMARK   91  A    between atoms: _227  and  _228
REMARK   92  A    between atoms: _230  and  _232
REMARK   93  A    between atoms: _232  and  _233
REMARK   94  A    between atoms: _232  and  _235
REMARK   95  A    between atoms: _235  and  _236
REMARK   96  A    between atoms: _236  and  _237
REMARK   97  A    between atoms: _237  and  _238
REMARK   98  A    between atoms: _247  and  _249
REMARK   99  A    between atoms: _249  and  _250
REMARK  100  A    between atoms: _249  and  _252
REMARK  101  A    between atoms: _252  and  _253
REMARK  102  A    between atoms: _258  and  _260
REMARK  103  A    between atoms: _260  and  _261
REMARK  104  A    between atoms: _260  and  _263
REMARK  105  A    between atoms: _263  and  _264
REMARK  106  A    between atoms: _267  and  _269
REMARK  107  A    between atoms: _269  and  _270
REMARK  108  A    between atoms: _269  and  _272
REMARK  109  A    between atoms: _272  and  _273
REMARK  110  A    between atoms: _278  and  _280
REMARK  111  A    between atoms: _280  and  _281
REMARK  112  A    between atoms: _280  and  _283
REMARK  113  A    between atoms: _283  and  _284
REMARK  114  A    between atoms: _287  and  _289
REMARK  115  A    between atoms: _289  and  _290
REMARK  116  A    between atoms: _289  and  _292
REMARK  117  A    between atoms: _292  and  _293
REMARK  118  A    between atoms: _298  and  _300
REMARK  119  A    between atoms: _300  and  _301
REMARK  120  A    between atoms: _300  and  _303
REMARK  121  A    between atoms: _303  and  _304
REMARK  122  A    between atoms: _304  and  _305
REMARK  123  A    between atoms: _307  and  _309
REMARK  124  A    between atoms: _309  and  _310
REMARK  125  A    between atoms: _309  and  _312
REMARK  126  A    between atoms: _312  and  _313
REMARK  127  A    between atoms: _315  and  _317
REMARK  128  A    between atoms: _317  and  _318
REMARK  129  A    between atoms: _317  and  _320
REMARK  130  A    between atoms: _320  and  _321
REMARK  131  A    between atoms: _326  and  _327
REMARK  132  A    between atoms: _329  and  _331
REMARK  133  A    between atoms: _331  and  _332
REMARK  134  A    between atoms: _331  and  _334
REMARK  135  A    between atoms: _334  and  _335
REMARK  136  A    between atoms: _335  and  _336
REMARK  137  A    between atoms: _339  and  _341
REMARK  138  A    between atoms: _341  and  _342
REMARK  139  A    between atoms: _341  and  _344
REMARK  140  A    between atoms: _344  and  _345
REMARK  141  A    between atoms: _345  and  _346
REMARK  142  A    between atoms: _346  and  _348
REMARK  143  A    between atoms: _348  and  FE_417
REMARK  144  A    between atoms: _349  and  _351
REMARK  145  A    between atoms: _351  and  _352
REMARK  146  A    between atoms: _355  and  _357
REMARK  147  A    between atoms: _357  and  _358
REMARK  148  A    between atoms: _357  and  _360
REMARK  149  A    between atoms: _360  and  _361
REMARK  150  A    between atoms: _366  and  _368
REMARK  151  A    between atoms: _368  and  _369
REMARK  152  A    between atoms: _368  and  _371
REMARK  153  A    between atoms: _371  and  _372
REMARK  154  A    between atoms: _375  and  _376
REMARK  155  A    between atoms: _381  and  _383
REMARK  156  A    between atoms: _383  and  _384
REMARK  157  A    between atoms: _383  and  _386
REMARK  158  A    between atoms: _386  and  _387
REMARK  159  A    between atoms: _389  and  _391
REMARK  160  A    between atoms: _391  and  _392
REMARK  161  A    between atoms: _391  and  _394
REMARK  162  A    between atoms: _394  and  _395
REMARK  163  A    between atoms: _400  and  _402
REMARK  164  A    between atoms: _402  and  _403
REMARK  165  A    between atoms: _402  and  _405
REMARK  166  A    between atoms: _405  and  _406
REMARK  167  A    between atoms: _406  and  _407
REMARK  168  A    between atoms: _407  and  _408
REMARK                            x       y       z     vdW  Elec       q    Type
REMARK                         _______ _______ _______ _____ _____    ______ ____
ROOT
ATOM      1  NE  ARG A   1      31.275 -26.929  68.653  0.00  0.00    +0.330 N 
ATOM      2  HE  ARG A   1      31.716 -26.088  69.076  0.00  0.00    +0.000 HD
ATOM      3  CZ  ARG A   1      29.992 -26.838  68.295  0.00  0.00    +0.000 C 
ATOM      4  NH2 ARG A   1      29.357 -25.674  68.426  0.00  0.00    +0.330 N 
ATOM      5 HH21 ARG A   1      29.861 -24.847  68.804  0.00  0.00    +0.000 HD
ATOM      6 HH22 ARG A   1      28.358 -25.593  68.150  0.00  0.00    +0.000 HD
ATOM      7  NH1 ARG A   1      29.362 -27.882  67.756  0.00  0.00    +0.330 N 
ATOM      8 HH11 ARG A   1      29.870 -28.778  67.611  0.00  0.00    +0.000 HD
ATOM      9 HH12 ARG A   1      28.362 -27.801  67.481  0.00  0.00    +0.000 HD
ENDROOT
BRANCH   1  10
ATOM     10  CD  ARG A   1      32.108 -28.122  68.496  0.00  0.00    +0.000 C 
BRANCH  10  11
ATOM     11  CG  ARG A   1      32.689 -28.233  67.087  0.00  0.00    +0.000 C 
BRANCH  11  12
ATOM     12  CB  ARG A   1      33.503 -29.497  66.925  0.00  0.00    +0.000 C 
BRANCH  12  13
ATOM     13  CA  ARG A   1      34.011 -29.762  65.503  0.00  0.00    +0.000 C 
BRANCH  13  14
ATOM     14  N   ARG A   1      32.896 -29.978  64.589  0.00  0.00    +0.000 NA
ATOM     15  H   ARG A   1      31.991 -30.318  64.972  0.00  0.00    +0.000 HD
ENDBRANCH  13  14
BRANCH  13  16
ATOM     16  C   ARG A   1      34.912 -31.006  65.505  0.00  0.00    +0.000 C 
ATOM     17  O   ARG A   1      34.588 -32.000  64.803  0.00  0.00    +0.000 OA
ENDBRANCH  13  16
ENDBRANCH  12  13
ENDBRANCH  11  12
ENDBRANCH  10  11
ENDBRANCH   1  10
TORSDOF 6
REMARK  Name = ../refined-set-2016/1kmy/1kmy_pocket.pdb
REMARK  168 active torsions:
REMARK  status: ('A' for Active; 'I' for Inactive)
REMARK    1  A    between atoms: _1  and  _3
REMARK    2  A    between atoms: _3  and  _4
REMARK    3  A    between atoms: _3  and  _6
REMARK    4  A    between atoms: _6  and  _7
REMARK    5  A    between atoms: _11  and  FE_417
REMARK    6  A    between atoms: _12  and  _14
REMARK    7  A    between atoms: _14  and  _15
REMARK    8  A    between atoms: _14  and  _17
REMARK    9  A    between atoms: _17  and  _18
REMARK   10  A    between atoms: _24  and  _26
REMARK   11  A    between atoms: _26  and  _27
REMARK   12  A    between atoms: _26  and  _29
REMARK   13  A    between atoms: _32  and  _34
REMARK   14  A    between atoms: _34  and  _35
REMARK   15  A    between atoms: _34  and  _37
REMARK   16  A    between atoms: _37  and  _38
REMARK   17  A    between atoms: _38  and  _39
REMARK   18  A    between atoms: _39  and  _40
REMARK   19  A    between atoms: _49  and  _51
REMARK   20  A    between atoms: _51  and  _52
REMARK   21  A    between atoms: _51  and  _54
REMARK   22  A    between atoms: _56  and  _58
REMARK   23  A    between atoms: _58  and  _59
REMARK   24  A    between atoms: _58  and  _61
REMARK   25  A    between atoms: _61  and  _62
REMARK   26  A    between atoms: _65  and  _67
REMARK   27  A    between atoms: _67  and  _68
REMARK   28  A    between atoms: _67  and  _70
REMARK   29  A    between atoms: _70  and  _71
REMARK   30  A    between atoms: _74  and  _76
REMARK   31  A    between atoms: _76  and  _77
REMARK   32  A    between atoms: _76  and  _79
REMARK   33  A    between atoms: _79  and  _80
REMARK   34  A    between atoms: _80  and  _81
REMARK   35  A    between atoms: _83  and  _85
REMARK   36  A    between atoms: _85  and  _86
REMARK   37  A    between atoms: _89  and  _91
REMARK   38  A    between atoms: _91  and  _92
REMARK   39  A    between atoms: _91  and  _94
REMARK   40  A    between atoms: _94  and  _95
REMARK   41  A    between atoms: _100  and  _101
REMARK   42  A    between atoms: _103  and  _105
REMARK   43  A    between atoms: _105  and  _106
REMARK   44  A    between atoms: _105  and  _108
REMARK   45  A    between atoms: _108  and  _109
REMARK   46  A    between atoms: _115  and  _117
REMARK   47  A    between atoms: _117  and  _118
REMARK   48  A    between atoms: _117  and  _120
REMARK   49  A    between atoms: _120  and  _121
REMARK   50  A    between atoms: _126  and  _128
REMARK   51  A    between atoms: _128  and  _129
REMARK   52  A    between atoms: _128  and  _131
REMARK   53  A    between atoms: _131  and  _132
REMARK   54  A    between atoms: _137  and  _139
REMARK   55  A    between atoms: _139  and  _140
REMARK   56  A    between atoms: _143  and  _145
REMARK   57  A    between atoms: _145  and  _146
REMARK   58  A    between atoms: _145  and  _148
REMARK   59  A    between atoms: _148  and  _149
REMARK   60  A    between atoms: _152  and  _154
REMARK   61  A    between atoms: _154  and  _155
REMARK   62  A    between atoms: _158  and  _160
REMARK   63  A    between atoms: _160  and  _161
REMARK   64  A    between atoms: _160  and  _163
REMARK   65  A    between atoms: _163  and  _164
REMARK   66  A    between atoms: _170  and  _172
REMARK   67  A    between atoms: _172  and  _173
REMARK   68  A    between atoms: _172  and  _175
REMARK   69  A    between atoms: _175  and  _176
REMARK   70  A    between atoms: _179  and  _181
REMARK   71  A    between atoms: _181  and  _182
REMARK   72  A    between atoms: _181  and  _184
REMARK   73  A    between atoms: _184  and  _185
REMARK   74  A    between atoms: _190  and  _192
REMARK   75  A    between atoms: _192  and  _193
REMARK   76  A    between atoms: _192  and  _195
REMARK   77  A    between atoms: _195  and  _196
REMARK   78  A    between atoms: _200  and  FE_417
REMARK   79  A    between atoms: _201  and  _203
REMARK   80  A    between atoms: _203  and  _204
REMARK   81  A    between atoms: _203  and  _206
REMARK   82  A    between atoms: _206  and  _207
REMARK   83  A    between atoms: _213  and  _215
REMARK   84  A    between atoms: _215  and  _216
REMARK   85  A    between atoms: _215  and  _218
REMARK   86  A    between atoms: _218  and  _219
REMARK   87  A    between atoms: _219  and  _220
REMARK   88  A    between atoms: _222  and  _224
REMARK   89  A    between atoms: _224  and  _225
REMARK   90  A    between atoms: _224  and  _227
REMARK   91  A    between atoms: _227  and  _228
REMARK   92  A    between atoms: _230  and  _232
REMARK   93  A    between atoms: _232  and  _233
REMARK   94  A    between atoms: _232  and  _235
REMARK   95  A    between atoms: _235  and  _236
REMARK   96  A    between atoms: _236  and  _237
REMARK   97  A    between atoms: _237  and  _238
REMARK   98  A    between atoms: _247  and  _249
REMARK   99  A    between atoms: _249  and  _250
REMARK  100  A    between atoms: _249  and  _252
REMARK  101  A    between atoms: _252  and  _253
REMARK  102  A    between atoms: _258  and  _260
REMARK  103  A    between atoms: _260  and  _261
REMARK  104  A    between atoms: _260  and  _263
REMARK  105  A    between atoms: _263  and  _264
REMARK  106  A    between atoms: _267  and  _269
REMARK  107  A    between atoms: _269  and  _270
REMARK  108  A    between atoms: _269  and  _272
REMARK  109  A    between atoms: _272  and  _273
REMARK  110  A    between atoms: _278  and  _280
REMARK  111  A    between atoms: _280  and  _281
REMARK  112  A    between atoms: _280  and  _283
REMARK  113  A    between atoms: _283  and  _284
REMARK  114  A    between atoms: _287  and  _289
REMARK  115  A    between atoms: _289  and  _290
REMARK  116  A    between atoms: _289  and  _292
REMARK  117  A    between atoms: _292  and  _293
REMARK  118  A    between atoms: _298  and  _300
REMARK  119  A    between atoms: _300  and  _301
REMARK  120  A    between atoms: _300  and  _303
REMARK  121  A    between atoms: _303  and  _304
REMARK  122  A    between atoms: _304  and  _305
REMARK  123  A    between atoms: _307  and  _309
REMARK  124  A    between atoms: _309  and  _310
REMARK  125  A    between atoms: _309  and  _312
REMARK  126  A    between atoms: _312  and  _313
REMARK  127  A    between atoms: _315  and  _317
REMARK  128  A    between atoms: _317  and  _318
REMARK  129  A    between atoms: _317  and  _320
REMARK  130  A    between atoms: _320  and  _321
REMARK  131  A    between atoms: _326  and  _327
REMARK  132  A    between atoms: _329  and  _331
REMARK  133  A    between atoms: _331  and  _332
REMARK  134  A    between atoms: _331  and  _334
REMARK  135  A    between atoms: _334  and  _335
REMARK  136  A    between atoms: _335  and  _336
REMARK  137  A    between atoms: _339  and  _341
REMARK  138  A    between atoms: _341  and  _342
REMARK  139  A    between atoms: _341  and  _344
REMARK  140  A    between atoms: _344  and  _345
REMARK  141  A    between atoms: _345  and  _346
REMARK  142  A    between atoms: _346  and  _348
REMARK  143  A    between atoms: _348  and  FE_417
REMARK  144  A    between atoms: _349  and  _351
REMARK  145  A    between atoms: _351  and  _352
REMARK  146  A    between atoms: _355  and  _357
REMARK  147  A    between atoms: _357  and  _358
REMARK  148  A    between atoms: _357  and  _360
REMARK  149  A    between atoms: _360  and  _361
REMARK  150  A    between atoms: _366  and  _368
REMARK  151  A    between atoms: _368  and  _369
REMARK  152  A    between atoms: _368  and  _371
REMARK  153  A    between atoms: _371  and  _372
REMARK  154  A    between atoms: _375  and  _376
REMARK  155  A    between atoms: _381  and  _383
REMARK  156  A    between atoms: _383  and  _384
REMARK  157  A    between atoms: _383  and  _386
REMARK  158  A    between atoms: _386  and  _387
REMARK  159  A    between atoms: _389  and  _391
REMARK  160  A    between atoms: _391  and  _392
REMARK  161  A    between atoms: _391  and  _394
REMARK  162  A    between atoms: _394  and  _395
REMARK  163  A    between atoms: _400  and  _402
REMARK  164  A    between atoms: _402  and  _403
REMARK  165  A    between atoms: _402  and  _405
REMARK  166  A    between atoms: _405  and  _406
REMARK  167  A    between atoms: _406  and  _407
REMARK  168  A    between atoms: _407  and  _408
REMARK                            x       y       z     vdW  Elec       q    Type
REMARK                         _______ _______ _______ _____ _____    ______ ____
ROOT
ATOM      1  O   HOH     1      18.015 -14.580  71.375  0.00  0.00    +0.000 OA
ENDROOT
TORSDOF 0
REMARK  Name = ../refined-set-2016/1kmy/1kmy_pocket.pdb
REMARK  168 active torsions:
REMARK  status: ('A' for Active; 'I' for Inactive)
REMARK    1  A    between atoms: _1  and  _3
REMARK    2  A    between atoms: _3  and  _4
REMARK    3  A    between atoms: _3  and  _6
REMARK    4  A    between atoms: _6  and  _7
REMARK    5  A    between atoms: _11  and  FE_417
REMARK    6  A    between atoms: _12  and  _14
REMARK    7  A    between atoms: _14  and  _15
REMARK    8  A    between atoms: _14  and  _17
REMARK    9  A    between atoms: _17  and  _18
REMARK   10  A    between atoms: _24  and  _26
REMARK   11  A    between atoms: _26  and  _27
REMARK   12  A    between atoms: _26  and  _29
REMARK   13  A    between atoms: _32  and  _34
REMARK   14  A    between atoms: _34  and  _35
REMARK   15  A    between atoms: _34  and  _37
REMARK   16  A    between atoms: _37  and  _38
REMARK   17  A    between atoms: _38  and  _39
REMARK   18  A    between atoms: _39  and  _40
REMARK   19  A    between atoms: _49  and  _51
REMARK   20  A    between atoms: _51  and  _52
REMARK   21  A    between atoms: _51  and  _54
REMARK   22  A    between atoms: _56  and  _58
REMARK   23  A    between atoms: _58  and  _59
REMARK   24  A    between atoms: _58  and  _61
REMARK   25  A    between atoms: _61  and  _62
REMARK   26  A    between atoms: _65  and  _67
REMARK   27  A    between atoms: _67  and  _68
REMARK   28  A    between atoms: _67  and  _70
REMARK   29  A    between atoms: _70  and  _71
REMARK   30  A    between atoms: _74  and  _76
REMARK   31  A    between atoms: _76  and  _77
REMARK   32  A    between atoms: _76  and  _79
REMARK   33  A    between atoms: _79  and  _80
REMARK   34  A    between atoms: _80  and  _81
REMARK   35  A    between atoms: _83  and  _85
REMARK   36  A    between atoms: _85  and  _86
REMARK   37  A    between atoms: _89  and  _91
REMARK   38  A    between atoms: _91  and  _92
REMARK   39  A    between atoms: _91  and  _94
REMARK   40  A    between atoms: _94  and  _95
REMARK   41  A    between atoms: _100  and  _101
REMARK   42  A    between atoms: _103  and  _105
REMARK   43  A    between atoms: _105  and  _106
REMARK   44  A    between atoms: _105  and  _108
REMARK   45  A    between atoms: _108  and  _109
REMARK   46  A    between atoms: _115  and  _117
REMARK   47  A    between atoms: _117  and  _118
REMARK   48  A    between atoms: _117  and  _120
REMARK   49  A    between atoms: _120  and  _121
REMARK   50  A    between atoms: _126  and  _128
REMARK   51  A    between atoms: _128  and  _129
REMARK   52  A    between atoms: _128  and  _131
REMARK   53  A    between atoms: _131  and  _132
REMARK   54  A    between atoms: _137  and  _139
REMARK   55  A    between atoms: _139  and  _140
REMARK   56  A    between atoms: _143  and  _145
REMARK   57  A    between atoms: _145  and  _146
REMARK   58  A    between atoms: _145  and  _148
REMARK   59  A    between atoms: _148  and  _149
REMARK   60  A    between atoms: _152  and  _154
REMARK   61  A    between atoms: _154  and  _155
REMARK   62  A    between atoms: _158  and  _160
REMARK   63  A    between atoms: _160  and  _161
REMARK   64  A    between atoms: _160  and  _163
REMARK   65  A    between atoms: _163  and  _164
REMARK   66  A    between atoms: _170  and  _172
REMARK   67  A    between atoms: _172  and  _173
REMARK   68  A    between atoms: _172  and  _175
REMARK   69  A    between atoms: _175  and  _176
REMARK   70  A    between atoms: _179  and  _181
REMARK   71  A    between atoms: _181  and  _182
REMARK   72  A    between atoms: _181  and  _184
REMARK   73  A    between atoms: _184  and  _185
REMARK   74  A    between atoms: _190  and  _192
REMARK   75  A    between atoms: _192  and  _193
REMARK   76  A    between atoms: _192  and  _195
REMARK   77  A    between atoms: _195  and  _196
REMARK   78  A    between atoms: _200  and  FE_417
REMARK   79  A    between atoms: _201  and  _203
REMARK   80  A    between atoms: _203  and  _204
REMARK   81  A    between atoms: _203  and  _206
REMARK   82  A    between atoms: _206  and  _207
REMARK   83  A    between atoms: _213  and  _215
REMARK   84  A    between atoms: _215  and  _216
REMARK   85  A    between atoms: _215  and  _218
REMARK   86  A    between atoms: _218  and  _219
REMARK   87  A    between atoms: _219  and  _220
REMARK   88  A    between atoms: _222  and  _224
REMARK   89  A    between atoms: _224  and  _225
REMARK   90  A    between atoms: _224  and  _227
REMARK   91  A    between atoms: _227  and  _228
REMARK   92  A    between atoms: _230  and  _232
REMARK   93  A    between atoms: _232  and  _233
REMARK   94  A    between atoms: _232  and  _235
REMARK   95  A    between atoms: _235  and  _236
REMARK   96  A    between atoms: _236  and  _237
REMARK   97  A    between atoms: _237  and  _238
REMARK   98  A    between atoms: _247  and  _249
REMARK   99  A    between atoms: _249  and  _250
REMARK  100  A    between atoms: _249  and  _252
REMARK  101  A    between atoms: _252  and  _253
REMARK  102  A    between atoms: _258  and  _260
REMARK  103  A    between atoms: _260  and  _261
REMARK  104  A    between atoms: _260  and  _263
REMARK  105  A    between atoms: _263  and  _264
REMARK  106  A    between atoms: _267  and  _269
REMARK  107  A    between atoms: _269  and  _270
REMARK  108  A    between atoms: _269  and  _272
REMARK  109  A    between atoms: _272  and  _273
REMARK  110  A    between atoms: _278  and  _280
REMARK  111  A    between atoms: _280  and  _281
REMARK  112  A    between atoms: _280  and  _283
REMARK  113  A    between atoms: _283  and  _284
REMARK  114  A    between atoms: _287  and  _289
REMARK  115  A    between atoms: _289  and  _290
REMARK  116  A    between atoms: _289  and  _292
REMARK  117  A    between atoms: _292  and  _293
REMARK  118  A    between atoms: _298  and  _300
REMARK  119  A    between atoms: _300  and  _301
REMARK  120  A    between atoms: _300  and  _303
REMARK  121  A    between atoms: _303  and  _304
REMARK  122  A    between atoms: _304  and  _305
REMARK  123  A    between atoms: _307  and  _309
REMARK  124  A    between atoms: _309  and  _310
REMARK  125  A    between atoms: _309  and  _312
REMARK  126  A    between atoms: _312  and  _313
REMARK  127  A    between atoms: _315  and  _317
REMARK  128  A    between atoms: _317  and  _318
REMARK  129  A    between atoms: _317  and  _320
REMARK  130  A    between atoms: _320  and  _321
REMARK  131  A    between atoms: _326  and  _327
REMARK  132  A    between atoms: _329  and  _331
REMARK  133  A    between atoms: _331  and  _332
REMARK  134  A    between atoms: _331  and  _334
REMARK  135  A    between atoms: _334  and  _335
REMARK  136  A    between atoms: _335  and  _336
REMARK  137  A    between atoms: _339  and  _341
REMARK  138  A    between atoms: _341  and  _342
REMARK  139  A    between atoms: _341  and  _344
REMARK  140  A    between atoms: _344  and  _345
REMARK  141  A    between atoms: _345  and  _346
REMARK  142  A    between atoms: _346  and  _348
REMARK  143  A    between atoms: _348  and  FE_417
REMARK  144  A    between atoms: _349  and  _351
REMARK  145  A    between atoms: _351  and  _352
REMARK  146  A    between atoms: _355  and  _357
REMARK  147  A    between atoms: _357  and  _358
REMARK  148  A    between atoms: _357  and  _360
REMARK  149  A    between atoms: _360  and  _361
REMARK  150  A    between atoms: _366  and  _368
REMARK  151  A    between atoms: _368  and  _369
REMARK  152  A    between atoms: _368  and  _371
REMARK  153  A    between atoms: _371  and  _372
REMARK  154  A    between atoms: _375  and  _376
REMARK  155  A    between atoms: _381  and  _383
REMARK  156  A    between atoms: _383  and  _384
REMARK  157  A    between atoms: _383  and  _386
REMARK  158  A    between atoms: _386  and  _387
REMARK  159  A    between atoms: _389  and  _391
REMARK  160  A    between atoms: _391  and  _392
REMARK  161  A    between atoms: _391  and  _394
REMARK  162  A    between atoms: _394  and  _395
REMARK  163  A    between atoms: _400  and  _402
REMARK  164  A    between atoms: _402  and  _403
REMARK  165  A    between atoms: _402  and  _405
REMARK  166  A    between atoms: _405  and  _406
REMARK  167  A    between atoms: _406  and  _407
REMARK  168  A    between atoms: _407  and  _408
REMARK                            x       y       z     vdW  Elec       q    Type
REMARK                         _______ _______ _______ _____ _____    ______ ____
ROOT
ATOM      1  O   HOH     1      28.131 -28.693  73.833  0.00  0.00    +0.000 OA
ENDROOT
TORSDOF 0
REMARK  Name = ../refined-set-2016/1kmy/1kmy_pocket.pdb
REMARK  168 active torsions:
REMARK  status: ('A' for Active; 'I' for Inactive)
REMARK    1  A    between atoms: _1  and  _3
REMARK    2  A    between atoms: _3  and  _4
REMARK    3  A    between atoms: _3  and  _6
REMARK    4  A    between atoms: _6  and  _7
REMARK    5  A    between atoms: _11  and  FE_417
REMARK    6  A    between atoms: _12  and  _14
REMARK    7  A    between atoms: _14  and  _15
REMARK    8  A    between atoms: _14  and  _17
REMARK    9  A    between atoms: _17  and  _18
REMARK   10  A    between atoms: _24  and  _26
REMARK   11  A    between atoms: _26  and  _27
REMARK   12  A    between atoms: _26  and  _29
REMARK   13  A    between atoms: _32  and  _34
REMARK   14  A    between atoms: _34  and  _35
REMARK   15  A    between atoms: _34  and  _37
REMARK   16  A    between atoms: _37  and  _38
REMARK   17  A    between atoms: _38  and  _39
REMARK   18  A    between atoms: _39  and  _40
REMARK   19  A    between atoms: _49  and  _51
REMARK   20  A    between atoms: _51  and  _52
REMARK   21  A    between atoms: _51  and  _54
REMARK   22  A    between atoms: _56  and  _58
REMARK   23  A    between atoms: _58  and  _59
REMARK   24  A    between atoms: _58  and  _61
REMARK   25  A    between atoms: _61  and  _62
REMARK   26  A    between atoms: _65  and  _67
REMARK   27  A    between atoms: _67  and  _68
REMARK   28  A    between atoms: _67  and  _70
REMARK   29  A    between atoms: _70  and  _71
REMARK   30  A    between atoms: _74  and  _76
REMARK   31  A    between atoms: _76  and  _77
REMARK   32  A    between atoms: _76  and  _79
REMARK   33  A    between atoms: _79  and  _80
REMARK   34  A    between atoms: _80  and  _81
REMARK   35  A    between atoms: _83  and  _85
REMARK   36  A    between atoms: _85  and  _86
REMARK   37  A    between atoms: _89  and  _91
REMARK   38  A    between atoms: _91  and  _92
REMARK   39  A    between atoms: _91  and  _94
REMARK   40  A    between atoms: _94  and  _95
REMARK   41  A    between atoms: _100  and  _101
REMARK   42  A    between atoms: _103  and  _105
REMARK   43  A    between atoms: _105  and  _106
REMARK   44  A    between atoms: _105  and  _108
REMARK   45  A    between atoms: _108  and  _109
REMARK   46  A    between atoms: _115  and  _117
REMARK   47  A    between atoms: _117  and  _118
REMARK   48  A    between atoms: _117  and  _120
REMARK   49  A    between atoms: _120  and  _121
REMARK   50  A    between atoms: _126  and  _128
REMARK   51  A    between atoms: _128  and  _129
REMARK   52  A    between atoms: _128  and  _131
REMARK   53  A    between atoms: _131  and  _132
REMARK   54  A    between atoms: _137  and  _139
REMARK   55  A    between atoms: _139  and  _140
REMARK   56  A    between atoms: _143  and  _145
REMARK   57  A    between atoms: _145  and  _146
REMARK   58  A    between atoms: _145  and  _148
REMARK   59  A    between atoms: _148  and  _149
REMARK   60  A    between atoms: _152  and  _154
REMARK   61  A    between atoms: _154  and  _155
REMARK   62  A    between atoms: _158  and  _160
REMARK   63  A    between atoms: _160  and  _161
REMARK   64  A    between atoms: _160  and  _163
REMARK   65  A    between atoms: _163  and  _164
REMARK   66  A    between atoms: _170  and  _172
REMARK   67  A    between atoms: _172  and  _173
REMARK   68  A    between atoms: _172  and  _175
REMARK   69  A    between atoms: _175  and  _176
REMARK   70  A    between atoms: _179  and  _181
REMARK   71  A    between atoms: _181  and  _182
REMARK   72  A    between atoms: _181  and  _184
REMARK   73  A    between atoms: _184  and  _185
REMARK   74  A    between atoms: _190  and  _192
REMARK   75  A    between atoms: _192  and  _193
REMARK   76  A    between atoms: _192  and  _195
REMARK   77  A    between atoms: _195  and  _196
REMARK   78  A    between atoms: _200  and  FE_417
REMARK   79  A    between atoms: _201  and  _203
REMARK   80  A    between atoms: _203  and  _204
REMARK   81  A    between atoms: _203  and  _206
REMARK   82  A    between atoms: _206  and  _207
REMARK   83  A    between atoms: _213  and  _215
REMARK   84  A    between atoms: _215  and  _216
REMARK   85  A    between atoms: _215  and  _218
REMARK   86  A    between atoms: _218  and  _219
REMARK   87  A    between atoms: _219  and  _220
REMARK   88  A    between atoms: _222  and  _224
REMARK   89  A    between atoms: _224  and  _225
REMARK   90  A    between atoms: _224  and  _227
REMARK   91  A    between atoms: _227  and  _228
REMARK   92  A    between atoms: _230  and  _232
REMARK   93  A    between atoms: _232  and  _233
REMARK   94  A    between atoms: _232  and  _235
REMARK   95  A    between atoms: _235  and  _236
REMARK   96  A    between atoms: _236  and  _237
REMARK   97  A    between atoms: _237  and  _238
REMARK   98  A    between atoms: _247  and  _249
REMARK   99  A    between atoms: _249  and  _250
REMARK  100  A    between atoms: _249  and  _252
REMARK  101  A    between atoms: _252  and  _253
REMARK  102  A    between atoms: _258  and  _260
REMARK  103  A    between atoms: _260  and  _261
REMARK  104  A    between atoms: _260  and  _263
REMARK  105  A    between atoms: _263  and  _264
REMARK  106  A    between atoms: _267  and  _269
REMARK  107  A    between atoms: _269  and  _270
REMARK  108  A    between atoms: _269  and  _272
REMARK  109  A    between atoms: _272  and  _273
REMARK  110  A    between atoms: _278  and  _280
REMARK  111  A    between atoms: _280  and  _281
REMARK  112  A    between atoms: _280  and  _283
REMARK  113  A    between atoms: _283  and  _284
REMARK  114  A    between atoms: _287  and  _289
REMARK  115  A    between atoms: _289  and  _290
REMARK  116  A    between atoms: _289  and  _292
REMARK  117  A    between atoms: _292  and  _293
REMARK  118  A    between atoms: _298  and  _300
REMARK  119  A    between atoms: _300  and  _301
REMARK  120  A    between atoms: _300  and  _303
REMARK  121  A    between atoms: _303  and  _304
REMARK  122  A    between atoms: _304  and  _305
REMARK  123  A    between atoms: _307  and  _309
REMARK  124  A    between atoms: _309  and  _310
REMARK  125  A    between atoms: _309  and  _312
REMARK  126  A    between atoms: _312  and  _313
REMARK  127  A    between atoms: _315  and  _317
REMARK  128  A    between atoms: _317  and  _318
REMARK  129  A    between atoms: _317  and  _320
REMARK  130  A    between atoms: _320  and  _321
REMARK  131  A    between atoms: _326  and  _327
REMARK  132  A    between atoms: _329  and  _331
REMARK  133  A    between atoms: _331  and  _332
REMARK  134  A    between atoms: _331  and  _334
REMARK  135  A    between atoms: _334  and  _335
REMARK  136  A    between atoms: _335  and  _336
REMARK  137  A    between atoms: _339  and  _341
REMARK  138  A    between atoms: _341  and  _342
REMARK  139  A    between atoms: _341  and  _344
REMARK  140  A    between atoms: _344  and  _345
REMARK  141  A    between atoms: _345  and  _346
REMARK  142  A    between atoms: _346  and  _348
REMARK  143  A    between atoms: _348  and  FE_417
REMARK  144  A    between atoms: _349  and  _351
REMARK  145  A    between atoms: _351  and  _352
REMARK  146  A    between atoms: _355  and  _357
REMARK  147  A    between atoms: _357  and  _358
REMARK  148  A    between atoms: _357  and  _360
REMARK  149  A    between atoms: _360  and  _361
REMARK  150  A    between atoms: _366  and  _368
REMARK  151  A    between atoms: _368  and  _369
REMARK  152  A    between atoms: _368  and  _371
REMARK  153  A    between atoms: _371  and  _372
REMARK  154  A    between atoms: _375  and  _376
REMARK  155  A    between atoms: _381  and  _383
REMARK  156  A    between atoms: _383  and  _384
REMARK  157  A    between atoms: _383  and  _386
REMARK  158  A    between atoms: _386  and  _387
REMARK  159  A    between atoms: _389  and  _391
REMARK  160  A    between atoms: _391  and  _392
REMARK  161  A    between atoms: _391  and  _394
REMARK  162  A    between atoms: _394  and  _395
REMARK  163  A    between atoms: _400  and  _402
REMARK  164  A    between atoms: _402  and  _403
REMARK  165  A    between atoms: _402  and  _405
REMARK  166  A    between atoms: _405  and  _406
REMARK  167  A    between atoms: _406  and  _407
REMARK  168  A    between atoms: _407  and  _408
REMARK                            x       y       z     vdW  Elec       q    Type
REMARK                         _______ _______ _______ _____ _____    ______ ____
ROOT
ATOM      1  O   HOH     1      20.006 -13.250  72.063  0.00  0.00    +0.000 OA
ENDROOT
TORSDOF 0
REMARK  Name = ../refined-set-2016/1kmy/1kmy_pocket.pdb
REMARK  168 active torsions:
REMARK  status: ('A' for Active; 'I' for Inactive)
REMARK    1  A    between atoms: _1  and  _3
REMARK    2  A    between atoms: _3  and  _4
REMARK    3  A    between atoms: _3  and  _6
REMARK    4  A    between atoms: _6  and  _7
REMARK    5  A    between atoms: _11  and  FE_417
REMARK    6  A    between atoms: _12  and  _14
REMARK    7  A    between atoms: _14  and  _15
REMARK    8  A    between atoms: _14  and  _17
REMARK    9  A    between atoms: _17  and  _18
REMARK   10  A    between atoms: _24  and  _26
REMARK   11  A    between atoms: _26  and  _27
REMARK   12  A    between atoms: _26  and  _29
REMARK   13  A    between atoms: _32  and  _34
REMARK   14  A    between atoms: _34  and  _35
REMARK   15  A    between atoms: _34  and  _37
REMARK   16  A    between atoms: _37  and  _38
REMARK   17  A    between atoms: _38  and  _39
REMARK   18  A    between atoms: _39  and  _40
REMARK   19  A    between atoms: _49  and  _51
REMARK   20  A    between atoms: _51  and  _52
REMARK   21  A    between atoms: _51  and  _54
REMARK   22  A    between atoms: _56  and  _58
REMARK   23  A    between atoms: _58  and  _59
REMARK   24  A    between atoms: _58  and  _61
REMARK   25  A    between atoms: _61  and  _62
REMARK   26  A    between atoms: _65  and  _67
REMARK   27  A    between atoms: _67  and  _68
REMARK   28  A    between atoms: _67  and  _70
REMARK   29  A    between atoms: _70  and  _71
REMARK   30  A    between atoms: _74  and  _76
REMARK   31  A    between atoms: _76  and  _77
REMARK   32  A    between atoms: _76  and  _79
REMARK   33  A    between atoms: _79  and  _80
REMARK   34  A    between atoms: _80  and  _81
REMARK   35  A    between atoms: _83  and  _85
REMARK   36  A    between atoms: _85  and  _86
REMARK   37  A    between atoms: _89  and  _91
REMARK   38  A    between atoms: _91  and  _92
REMARK   39  A    between atoms: _91  and  _94
REMARK   40  A    between atoms: _94  and  _95
REMARK   41  A    between atoms: _100  and  _101
REMARK   42  A    between atoms: _103  and  _105
REMARK   43  A    between atoms: _105  and  _106
REMARK   44  A    between atoms: _105  and  _108
REMARK   45  A    between atoms: _108  and  _109
REMARK   46  A    between atoms: _115  and  _117
REMARK   47  A    between atoms: _117  and  _118
REMARK   48  A    between atoms: _117  and  _120
REMARK   49  A    between atoms: _120  and  _121
REMARK   50  A    between atoms: _126  and  _128
REMARK   51  A    between atoms: _128  and  _129
REMARK   52  A    between atoms: _128  and  _131
REMARK   53  A    between atoms: _131  and  _132
REMARK   54  A    between atoms: _137  and  _139
REMARK   55  A    between atoms: _139  and  _140
REMARK   56  A    between atoms: _143  and  _145
REMARK   57  A    between atoms: _145  and  _146
REMARK   58  A    between atoms: _145  and  _148
REMARK   59  A    between atoms: _148  and  _149
REMARK   60  A    between atoms: _152  and  _154
REMARK   61  A    between atoms: _154  and  _155
REMARK   62  A    between atoms: _158  and  _160
REMARK   63  A    between atoms: _160  and  _161
REMARK   64  A    between atoms: _160  and  _163
REMARK   65  A    between atoms: _163  and  _164
REMARK   66  A    between atoms: _170  and  _172
REMARK   67  A    between atoms: _172  and  _173
REMARK   68  A    between atoms: _172  and  _175
REMARK   69  A    between atoms: _175  and  _176
REMARK   70  A    between atoms: _179  and  _181
REMARK   71  A    between atoms: _181  and  _182
REMARK   72  A    between atoms: _181  and  _184
REMARK   73  A    between atoms: _184  and  _185
REMARK   74  A    between atoms: _190  and  _192
REMARK   75  A    between atoms: _192  and  _193
REMARK   76  A    between atoms: _192  and  _195
REMARK   77  A    between atoms: _195  and  _196
REMARK   78  A    between atoms: _200  and  FE_417
REMARK   79  A    between atoms: _201  and  _203
REMARK   80  A    between atoms: _203  and  _204
REMARK   81  A    between atoms: _203  and  _206
REMARK   82  A    between atoms: _206  and  _207
REMARK   83  A    between atoms: _213  and  _215
REMARK   84  A    between atoms: _215  and  _216
REMARK   85  A    between atoms: _215  and  _218
REMARK   86  A    between atoms: _218  and  _219
REMARK   87  A    between atoms: _219  and  _220
REMARK   88  A    between atoms: _222  and  _224
REMARK   89  A    between atoms: _224  and  _225
REMARK   90  A    between atoms: _224  and  _227
REMARK   91  A    between atoms: _227  and  _228
REMARK   92  A    between atoms: _230  and  _232
REMARK   93  A    between atoms: _232  and  _233
REMARK   94  A    between atoms: _232  and  _235
REMARK   95  A    between atoms: _235  and  _236
REMARK   96  A    between atoms: _236  and  _237
REMARK   97  A    between atoms: _237  and  _238
REMARK   98  A    between atoms: _247  and  _249
REMARK   99  A    between atoms: _249  and  _250
REMARK  100  A    between atoms: _249  and  _252
REMARK  101  A    between atoms: _252  and  _253
REMARK  102  A    between atoms: _258  and  _260
REMARK  103  A    between atoms: _260  and  _261
REMARK  104  A    between atoms: _260  and  _263
REMARK  105  A    between atoms: _263  and  _264
REMARK  106  A    between atoms: _267  and  _269
REMARK  107  A    between atoms: _269  and  _270
REMARK  108  A    between atoms: _269  and  _272
REMARK  109  A    between atoms: _272  and  _273
REMARK  110  A    between atoms: _278  and  _280
REMARK  111  A    between atoms: _280  and  _281
REMARK  112  A    between atoms: _280  and  _283
REMARK  113  A    between atoms: _283  and  _284
REMARK  114  A    between atoms: _287  and  _289
REMARK  115  A    between atoms: _289  and  _290
REMARK  116  A    between atoms: _289  and  _292
REMARK  117  A    between atoms: _292  and  _293
REMARK  118  A    between atoms: _298  and  _300
REMARK  119  A    between atoms: _300  and  _301
REMARK  120  A    between atoms: _300  and  _303
REMARK  121  A    between atoms: _303  and  _304
REMARK  122  A    between atoms: _304  and  _305
REMARK  123  A    between atoms: _307  and  _309
REMARK  124  A    between atoms: _309  and  _310
REMARK  125  A    between atoms: _309  and  _312
REMARK  126  A    between atoms: _312  and  _313
REMARK  127  A    between atoms: _315  and  _317
REMARK  128  A    between atoms: _317  and  _318
REMARK  129  A    between atoms: _317  and  _320
REMARK  130  A    between atoms: _320  and  _321
REMARK  131  A    between atoms: _326  and  _327
REMARK  132  A    between atoms: _329  and  _331
REMARK  133  A    between atoms: _331  and  _332
REMARK  134  A    between atoms: _331  and  _334
REMARK  135  A    between atoms: _334  and  _335
REMARK  136  A    between atoms: _335  and  _336
REMARK  137  A    between atoms: _339  and  _341
REMARK  138  A    between atoms: _341  and  _342
REMARK  139  A    between atoms: _341  and  _344
REMARK  140  A    between atoms: _344  and  _345
REMARK  141  A    between atoms: _345  and  _346
REMARK  142  A    between atoms: _346  and  _348
REMARK  143  A    between atoms: _348  and  FE_417
REMARK  144  A    between atoms: _349  and  _351
REMARK  145  A    between atoms: _351  and  _352
REMARK  146  A    between atoms: _355  and  _357
REMARK  147  A    between atoms: _357  and  _358
REMARK  148  A    between atoms: _357  and  _360
REMARK  149  A    between atoms: _360  and  _361
REMARK  150  A    between atoms: _366  and  _368
REMARK  151  A    between atoms: _368  and  _369
REMARK  152  A    between atoms: _368  and  _371
REMARK  153  A    between atoms: _371  and  _372
REMARK  154  A    between atoms: _375  and  _376
REMARK  155  A    between atoms: _381  and  _383
REMARK  156  A    between atoms: _383  and  _384
REMARK  157  A    between atoms: _383  and  _386
REMARK  158  A    between atoms: _386  and  _387
REMARK  159  A    between atoms: _389  and  _391
REMARK  160  A    between atoms: _391  and  _392
REMARK  161  A    between atoms: _391  and  _394
REMARK  162  A    between atoms: _394  and  _395
REMARK  163  A    between atoms: _400  and  _402
REMARK  164  A    between atoms: _402  and  _403
REMARK  165  A    between atoms: _402  and  _405
REMARK  166  A    between atoms: _405  and  _406
REMARK  167  A    between atoms: _406  and  _407
REMARK  168  A    between atoms: _407  and  _408
REMARK                            x       y       z     vdW  Elec       q    Type
REMARK                         _______ _______ _______ _____ _____    ______ ____
ROOT
ATOM      1  O   HOH     1      20.673 -17.551  69.184  0.00  0.00    +0.000 OA
ENDROOT
TORSDOF 0
