REMARK  Name = ../refined-set-2016/3jvr/3jvr_pocket.pdb
REMARK  112 active torsions:
REMARK  status: ('A' for Active; 'I' for Inactive)
REMARK    1  A    between atoms: _1  and  _3
REMARK    2  A    between atoms: _3  and  _4
REMARK    3  A    between atoms: _3  and  _6
REMARK    4  A    between atoms: _6  and  _7
REMARK    5  A    between atoms: _7  and  _8
REMARK    6  A    between atoms: _11  and  _13
REMARK    7  A    between atoms: _13  and  _14
REMARK    8  A    between atoms: _13  and  _16
REMARK    9  A    between atoms: _16  and  _17
REMARK   10  A    between atoms: _20  and  _22
REMARK   11  A    between atoms: _22  and  _23
REMARK   12  A    between atoms: _22  and  _25
REMARK   13  A    between atoms: _25  and  _26
REMARK   14  A    between atoms: _32  and  _34
REMARK   15  A    between atoms: _34  and  _35
REMARK   16  A    between atoms: _34  and  _37
REMARK   17  A    between atoms: _37  and  _38
REMARK   18  A    between atoms: _41  and  _43
REMARK   19  A    between atoms: _43  and  _44
REMARK   20  A    between atoms: _43  and  _46
REMARK   21  A    between atoms: _46  and  _47
REMARK   22  A    between atoms: _47  and  _48
REMARK   23  A    between atoms: _48  and  _49
REMARK   24  A    between atoms: _58  and  _60
REMARK   25  A    between atoms: _60  and  _61
REMARK   26  A    between atoms: _60  and  _63
REMARK   27  A    between atoms: _63  and  _64
REMARK   28  A    between atoms: _67  and  _69
REMARK   29  A    between atoms: _69  and  _70
REMARK   30  A    between atoms: _69  and  _72
REMARK   31  A    between atoms: _72  and  _73
REMARK   32  A    between atoms: _73  and  _74
REMARK   33  A    between atoms: _78  and  _79
REMARK   34  A    between atoms: _84  and  _86
REMARK   35  A    between atoms: _86  and  _87
REMARK   36  A    between atoms: _86  and  _89
REMARK   37  A    between atoms: _89  and  _90
REMARK   38  A    between atoms: _93  and  _95
REMARK   39  A    between atoms: _95  and  _96
REMARK   40  A    between atoms: _95  and  _98
REMARK   41  A    between atoms: _98  and  _99
REMARK   42  A    between atoms: _102  and  _104
REMARK   43  A    between atoms: _104  and  _105
REMARK   44  A    between atoms: _107  and  _109
REMARK   45  A    between atoms: _109  and  _110
REMARK   46  A    between atoms: _109  and  _112
REMARK   47  A    between atoms: _112  and  _113
REMARK   48  A    between atoms: _113  and  _114
REMARK   49  A    between atoms: _117  and  _118
REMARK   50  A    between atoms: _123  and  _125
REMARK   51  A    between atoms: _125  and  _126
REMARK   52  A    between atoms: _125  and  _128
REMARK   53  A    between atoms: _128  and  _129
REMARK   54  A    between atoms: _129  and  _130
REMARK   55  A    between atoms: _130  and  _131
REMARK   56  A    between atoms: _131  and  _132
REMARK   57  A    between atoms: _137  and  _138
REMARK   58  A    between atoms: _143  and  _145
REMARK   59  A    between atoms: _145  and  _146
REMARK   60  A    between atoms: _145  and  _148
REMARK   61  A    between atoms: _148  and  _149
REMARK   62  A    between atoms: _149  and  _150
REMARK   63  A    between atoms: _154  and  _155
REMARK   64  A    between atoms: _160  and  _162
REMARK   65  A    between atoms: _162  and  _163
REMARK   66  A    between atoms: _162  and  _165
REMARK   67  A    between atoms: _165  and  _166
REMARK   68  A    between atoms: _171  and  _172
REMARK   69  A    between atoms: _174  and  _176
REMARK   70  A    between atoms: _176  and  _177
REMARK   71  A    between atoms: _176  and  _179
REMARK   72  A    between atoms: _179  and  _180
REMARK   73  A    between atoms: _183  and  _185
REMARK   74  A    between atoms: _185  and  _186
REMARK   75  A    between atoms: _185  and  _188
REMARK   76  A    between atoms: _191  and  _193
REMARK   77  A    between atoms: _193  and  _194
REMARK   78  A    between atoms: _193  and  _196
REMARK   79  A    between atoms: _196  and  _197
REMARK   80  A    between atoms: _200  and  _202
REMARK   81  A    between atoms: _202  and  _203
REMARK   82  A    between atoms: _206  and  _208
REMARK   83  A    between atoms: _208  and  _209
REMARK   84  A    between atoms: _208  and  _211
REMARK   85  A    between atoms: _211  and  _212
REMARK   86  A    between atoms: _212  and  _213
REMARK   87  A    between atoms: _215  and  _217
REMARK   88  A    between atoms: _217  and  _218
REMARK   89  A    between atoms: _217  and  _220
REMARK   90  A    between atoms: _220  and  _221
REMARK   91  A    between atoms: _224  and  _226
REMARK   92  A    between atoms: _226  and  _227
REMARK   93  A    between atoms: _230  and  _232
REMARK   94  A    between atoms: _232  and  _233
REMARK   95  A    between atoms: _235  and  _237
REMARK   96  A    between atoms: _237  and  _238
REMARK   97  A    between atoms: _237  and  _240
REMARK   98  A    between atoms: _240  and  _241
REMARK   99  A    between atoms: _241  and  _242
REMARK  100  A    between atoms: _245  and  _247
REMARK  101  A    between atoms: _247  and  _248
REMARK  102  A    between atoms: _247  and  _250
REMARK  103  A    between atoms: _250  and  _251
REMARK  104  A    between atoms: _255  and  _256
REMARK  105  A    between atoms: _262  and  _263
REMARK  106  A    between atoms: _268  and  _270
REMARK  107  A    between atoms: _270  and  _271
REMARK  108  A    between atoms: _270  and  _273
REMARK  109  A    between atoms: _273  and  _274
REMARK  110  A    between atoms: _274  and  _275
REMARK  111  A    between atoms: _275  and  _276
REMARK  112  A    between atoms: _276  and  _277
REMARK                            x       y       z     vdW  Elec       q    Type
REMARK                         _______ _______ _______ _____ _____    ______ ____
ROOT
ATOM      1  CA  ILE A   6      29.801   0.456  20.762  0.00  0.00    +0.149 C 
ENDROOT
BRANCH   1   2
ATOM      2  C   ILE A   6      30.977  -0.509  20.750  0.00  0.00    +0.241 C 
ATOM      3  N   GLU A   7      32.160  -0.014  21.097  0.00  0.00    -0.297 N 
ATOM      4  H   GLU A   7      32.245   0.991  21.351  0.00  0.00    +0.150 HD
ATOM      5  O   ILE A   6      30.818  -1.686  20.430  0.00  0.00    -0.273 OA
BRANCH   3   6
ATOM      6  CA  GLU A   7      33.340  -0.869  21.124  0.00  0.00    +0.149 C 
BRANCH   6   7
ATOM      7  C   GLU A   7      33.438  -1.623  22.439  0.00  0.00    +0.244 C 
ATOM      8  O   GLU A   7      33.350  -1.034  23.516  0.00  0.00    -0.273 OA
ATOM      9  N   PRO A   8      33.632  -2.949  22.367  0.00  0.00    -0.272 N 
ATOM     10  CA  PRO A   8      33.741  -3.767  23.577  0.00  0.00    +0.152 C 
ATOM     11  CB  PRO A   8      34.136  -5.144  23.041  0.00  0.00    +0.031 C 
ATOM     12  CG  PRO A   8      33.560  -5.171  21.668  0.00  0.00    +0.024 C 
ATOM     13  CD  PRO A   8      33.707  -3.766  21.144  0.00  0.00    +0.094 C 
BRANCH  10  14
ATOM     14  C   PRO A   8      34.763  -3.212  24.561  0.00  0.00    +0.241 C 
ATOM     15  N   ASP A   9      34.322  -3.029  25.801  0.00  0.00    -0.297 N 
ATOM     16  H   ASP A   9      33.313  -3.192  25.995  0.00  0.00    +0.150 HD
ATOM     17  O   PRO A   8      35.910  -2.945  24.197  0.00  0.00    -0.273 OA
BRANCH  15  18
ATOM     18  CA  ASP A   9      35.180  -2.611  26.904  0.00  0.00    +0.160 C 
BRANCH  18  19
ATOM     19  C   ASP A   9      35.604  -1.148  26.826  0.00  0.00    +0.241 C 
ATOM     20  O   ASP A   9      36.275  -0.644  27.727  0.00  0.00    -0.273 OA
ATOM     21  N   ILE A  10      35.209  -0.470  25.755  0.00  0.00    -0.297 N 
ATOM     22  H   ILE A  10      34.625  -0.947  25.038  0.00  0.00    +0.150 HD
BRANCH  21  23
ATOM     23  CA  ILE A  10      35.575   0.930  25.560  0.00  0.00    +0.149 C 
BRANCH  23  24
ATOM     24  C   ILE A  10      34.354   1.839  25.495  0.00  0.00    +0.241 C 
ATOM     25  O   ILE A  10      34.298   2.864  26.167  0.00  0.00    -0.273 OA
ATOM     26  N   GLY A  11      33.377   1.453  24.686  0.00  0.00    -0.295 N 
ATOM     27  H   GLY A  11      33.445   0.543  24.187  0.00  0.00    +0.150 HD
BRANCH  26  28
ATOM     28  CA  GLY A  11      32.215   2.296  24.495  0.00  0.00    +0.176 C 
BRANCH  28  29
ATOM     29  C   GLY A  11      32.385   3.161  23.262  0.00  0.00    +0.243 C 
ATOM     30  N   MET A  12      32.270   4.471  23.444  0.00  0.00    -0.297 N 
ATOM     31  H   MET A  12      32.042   4.829  24.394  0.00  0.00    +0.150 HD
ATOM     32  O   GLY A  11      32.611   2.654  22.165  0.00  0.00    -0.273 OA
BRANCH  30  33
ATOM     33  CA  MET A  12      32.452   5.422  22.358  0.00  0.00    +0.150 C 
BRANCH  33  34
ATOM     34  C   MET A  12      32.832   6.755  22.984  0.00  0.00    +0.244 C 
ATOM     35  O   MET A  12      32.750   6.923  24.198  0.00  0.00    -0.273 OA
ATOM     36  N   PRO A  13      33.259   7.721  22.165  0.00  0.00    -0.273 N 
ATOM     37  CA  PRO A  13      33.606   9.027  22.731  0.00  0.00    +0.140 C 
ATOM     38  CB  PRO A  13      34.065   9.832  21.518  0.00  0.00    +0.030 C 
ATOM     39  CG  PRO A  13      34.500   8.799  20.533  0.00  0.00    +0.024 C 
ATOM     40  CD  PRO A  13      33.552   7.652  20.725  0.00  0.00    +0.094 C 
BRANCH  37  41
ATOM     41  C   PRO A  13      32.405   9.660  23.424  0.00  0.00    +0.227 C 
ATOM     42  O   PRO A  13      31.281   9.578  22.932  0.00  0.00    -0.286 OA
ENDBRANCH  37  41
ENDBRANCH  33  34
BRANCH  33  43
ATOM     43  CB  MET A  12      31.158   5.578  21.556  0.00  0.00    +0.041 C 
BRANCH  43  44
ATOM     44  CG  MET A  12      30.044   6.287  22.315  0.00  0.00    +0.060 C 
BRANCH  44  45
ATOM     45  SD  MET A  12      28.543   6.439  21.322  0.00  0.00    -0.139 S 
ATOM     46  CE  MET A  12      28.097   4.695  21.149  0.00  0.00    +0.069 C 
ENDBRANCH  44  45
ENDBRANCH  43  44
ENDBRANCH  33  43
ENDBRANCH  30  33
ENDBRANCH  28  29
ENDBRANCH  26  28
ENDBRANCH  23  24
BRANCH  23  47
ATOM     47  CB  ILE A  10      36.386   1.110  24.267  0.00  0.00    +0.027 C 
ATOM     48  CG2 ILE A  10      36.446   2.580  23.887  0.00  0.00    +0.002 C 
BRANCH  47  49
ATOM     49  CG1 ILE A  10      37.787   0.530  24.458  0.00  0.00    +0.002 C 
ATOM     50  CD1 ILE A  10      38.714   0.776  23.295  0.00  0.00    +0.000 C 
ENDBRANCH  47  49
ENDBRANCH  23  47
ENDBRANCH  21  23
ENDBRANCH  18  19
BRANCH  18  51
ATOM     51  CB  ASP A   9      36.425  -3.500  26.975  0.00  0.00    +0.143 C 
BRANCH  51  52
ATOM     52  CG  ASP A   9      37.126  -3.403  28.311  0.00  0.00    +0.367 C 
ATOM     53  OD2 ASP A   9      36.424  -3.363  29.345  0.00  0.00    -0.246 OA
ATOM     54  OD1 ASP A   9      38.376  -3.364  28.331  0.00  0.00    -0.246 OA
ENDBRANCH  51  52
ENDBRANCH  18  51
ENDBRANCH  15  18
ENDBRANCH  10  14
ENDBRANCH   6   7
BRANCH   6  55
ATOM     55  CB  GLU A   7      34.616  -0.045  20.917  0.00  0.00    +0.041 C 
BRANCH  55  56
ATOM     56  CG  GLU A   7      35.886  -0.876  21.064  0.00  0.00    +0.116 C 
BRANCH  56  57
ATOM     57  CD  GLU A   7      37.145  -0.111  20.710  0.00  0.00    +0.365 C 
ATOM     58  OE2 GLU A   7      38.229  -0.730  20.708  0.00  0.00    -0.246 OA
ATOM     59  OE1 GLU A   7      37.053   1.104  20.436  0.00  0.00    -0.246 OA
ENDBRANCH  56  57
ENDBRANCH  55  56
ENDBRANCH   6  55
ENDBRANCH   3   6
ENDBRANCH   1   2
BRANCH   1  61
ATOM     60  C   ARG A   5      29.600   1.539  18.595  0.00  0.00    +0.241 C 
ATOM     61  N   ILE A   6      29.228   0.576  19.431  0.00  0.00    -0.297 N 
ATOM     62  H   ILE A   6      28.508  -0.110  19.126  0.00  0.00    +0.150 HD
ATOM     63  O   ARG A   5      30.490   2.343  18.857  0.00  0.00    -0.273 OA
BRANCH  60  64
ATOM     64  CA  ARG A   5      28.852   1.618  17.271  0.00  0.00    +0.149 C 
BRANCH  64  66
ATOM     65  C   ASP A   4      28.362  -0.669  16.576  0.00  0.00    +0.241 C 
ATOM     66  N   ARG A   5      27.944   0.487  17.087  0.00  0.00    -0.297 N 
ATOM     67  H   ARG A   5      26.946   0.588  17.362  0.00  0.00    +0.150 HD
ATOM     68  O   ASP A   4      29.534  -0.873  16.249  0.00  0.00    -0.273 OA
BRANCH  65  69
ATOM     69  CA  ASP A   4      27.312  -1.765  16.402  0.00  0.00    +0.160 C 
BRANCH  69  72
ATOM     70  C   PHE A   3      25.985  -1.655  18.451  0.00  0.00    +0.241 C 
ATOM     71  O   PHE A   3      26.959  -1.886  19.169  0.00  0.00    -0.273 OA
ATOM     72  N   ASP A   4      26.072  -1.507  17.132  0.00  0.00    -0.297 N 
ATOM     73  H   ASP A   4      25.231  -1.198  16.603  0.00  0.00    +0.150 HD
BRANCH  70  74
ATOM     74  CA  PHE A   3      24.587  -1.508  19.056  0.00  0.00    +0.153 C 
BRANCH  74  77
ATOM     75  C   LEU A   2      24.423   0.817  18.308  0.00  0.00    +0.241 C 
ATOM     76  O   LEU A   2      25.583   1.074  18.638  0.00  0.00    -0.273 OA
ATOM     77  N   PHE A   3      23.875  -0.389  18.448  0.00  0.00    -0.297 N 
ATOM     78  H   PHE A   3      22.903  -0.539  18.111  0.00  0.00    +0.150 HD
BRANCH  75  79
ATOM     79  CA  LEU A   2      23.528   1.889  17.693  0.00  0.00    +0.149 C 
BRANCH  79  81
ATOM     80  C   GLU A   1      23.081   0.520  15.740  0.00  0.00    +0.238 C 
ATOM     81  N   LEU A   2      22.621   1.265  16.739  0.00  0.00    -0.297 N 
ATOM     82  H   LEU A   2      21.596   1.405  16.842  0.00  0.00    +0.150 HD
ATOM     83  O   GLU A   1      24.279   0.411  15.480  0.00  0.00    -0.274 OA
BRANCH  80  84
ATOM     84  CA  GLU A   1      22.037  -0.217  14.919  0.00  0.00    +0.145 C 
BRANCH  84  85
ATOM     85  N   GLU A   1      22.405  -0.238  13.506  0.00  0.00    -0.238 NA
ATOM     86  H   GLU A   1      22.955  -1.040  13.138  0.00  0.00    +0.142 HD
ENDBRANCH  84  85
BRANCH  84  87
ATOM     87  CB  GLU A   1      21.906  -1.640  15.459  0.00  0.00    +0.038 C 
BRANCH  87  88
ATOM     88  CG  GLU A   1      20.909  -2.510  14.713  0.00  0.00    +0.116 C 
BRANCH  88  89
ATOM     89  CD  GLU A   1      20.868  -3.922  15.258  0.00  0.00    +0.365 C 
ATOM     90  OE2 GLU A   1      21.609  -4.206  16.224  0.00  0.00    -0.246 OA
ATOM     91  OE1 GLU A   1      20.096  -4.746  14.724  0.00  0.00    -0.246 OA
ENDBRANCH  88  89
ENDBRANCH  87  88
ENDBRANCH  84  87
ENDBRANCH  80  84
ENDBRANCH  79  81
BRANCH  79  92
ATOM     92  CB  LEU A   2      22.729   2.593  18.795  0.00  0.00    +0.029 C 
BRANCH  92  93
ATOM     93  CG  LEU A   2      23.541   3.228  19.930  0.00  0.00    +0.002 C 
ATOM     94  CD2 LEU A   2      22.592   3.760  21.004  0.00  0.00    +0.000 C 
ATOM     95  CD1 LEU A   2      24.404   4.350  19.377  0.00  0.00    +0.000 C 
ENDBRANCH  92  93
ENDBRANCH  79  92
ENDBRANCH  75  79
ENDBRANCH  74  77
BRANCH  74  96
ATOM     96  CB  PHE A   3      23.790  -2.804  18.844  0.00  0.00    +0.055 C 
BRANCH  96  97
ATOM     97  CG  PHE A   3      24.429  -4.028  19.448  0.00  0.00    -0.020 A 
ATOM     98  CD2 PHE A   3      23.996  -4.520  20.670  0.00  0.00    -0.004 A 
ATOM     99  CE2 PHE A   3      24.543  -5.674  21.207  0.00  0.00    -0.000 A 
ATOM    100  CZ  PHE A   3      25.538  -6.350  20.521  0.00  0.00    -0.000 A 
ATOM    101  CE1 PHE A   3      25.980  -5.867  19.304  0.00  0.00    -0.000 A 
ATOM    102  CD1 PHE A   3      25.429  -4.714  18.772  0.00  0.00    -0.004 A 
ENDBRANCH  96  97
ENDBRANCH  74  96
ENDBRANCH  70  74
ENDBRANCH  69  72
BRANCH  69 103
ATOM    103  CB  ASP A   4      27.017  -1.954  14.908  0.00  0.00    +0.143 C 
BRANCH 103 104
ATOM    104  CG  ASP A   4      26.390  -3.302  14.602  0.00  0.00    +0.367 C 
ATOM    105  OD2 ASP A   4      26.374  -4.168  15.498  0.00  0.00    -0.246 OA
ATOM    106  OD1 ASP A   4      25.915  -3.496  13.464  0.00  0.00    -0.246 OA
ENDBRANCH 103 104
ENDBRANCH  69 103
ENDBRANCH  65  69
ENDBRANCH  64  66
BRANCH  64 107
ATOM    107  CB  ARG A   5      28.081   2.938  17.223  0.00  0.00    +0.033 C 
BRANCH 107 108
ATOM    108  CG  ARG A   5      27.249   3.132  15.973  0.00  0.00    +0.045 C 
BRANCH 108 109
ATOM    109  CD  ARG A   5      28.089   2.988  14.716  0.00  0.00    +0.174 C 
BRANCH 109 110
ATOM    110  NE  ARG A   5      27.294   3.247  13.521  0.00  0.00    -0.265 N 
ATOM    111  HE  ARG A   5      26.837   2.437  13.056  0.00  0.00    +0.259 HD
ATOM    112  CZ  ARG A   5      27.116   4.451  12.989  0.00  0.00    +0.342 C 
ATOM    113  NH2 ARG A   5      27.681   5.516  13.544  0.00  0.00    -0.292 N 
ATOM    114 HH21 ARG A   5      28.265   5.409  14.398  0.00  0.00    +0.255 HD
ATOM    115 HH22 ARG A   5      27.540   6.457  13.125  0.00  0.00    +0.255 HD
ATOM    116  NH1 ARG A   5      26.368   4.592  11.905  0.00  0.00    -0.292 N 
ATOM    117 HH11 ARG A   5      26.229   5.535  11.488  0.00  0.00    +0.255 HD
ATOM    118 HH12 ARG A   5      25.920   3.760  11.470  0.00  0.00    +0.255 HD
ENDBRANCH 109 110
ENDBRANCH 108 109
ENDBRANCH 107 108
ENDBRANCH  64 107
ENDBRANCH  60  64
ENDBRANCH   1  61
BRANCH   1 119
ATOM    119  CB  ILE A   6      28.743  -0.053  21.757  0.00  0.00    +0.027 C 
ATOM    120  CG2 ILE A   6      29.335  -0.150  23.152  0.00  0.00    +0.002 C 
BRANCH 119 121
ATOM    121  CG1 ILE A   6      27.534   0.884  21.736  0.00  0.00    +0.002 C 
ATOM    122  CD1 ILE A   6      26.367   0.400  22.576  0.00  0.00    +0.000 C 
ENDBRANCH 119 121
ENDBRANCH   1 119
TORSDOF 49
REMARK  Name = ../refined-set-2016/3jvr/3jvr_pocket.pdb
REMARK  112 active torsions:
REMARK  status: ('A' for Active; 'I' for Inactive)
REMARK    1  A    between atoms: _1  and  _3
REMARK    2  A    between atoms: _3  and  _4
REMARK    3  A    between atoms: _3  and  _6
REMARK    4  A    between atoms: _6  and  _7
REMARK    5  A    between atoms: _7  and  _8
REMARK    6  A    between atoms: _11  and  _13
REMARK    7  A    between atoms: _13  and  _14
REMARK    8  A    between atoms: _13  and  _16
REMARK    9  A    between atoms: _16  and  _17
REMARK   10  A    between atoms: _20  and  _22
REMARK   11  A    between atoms: _22  and  _23
REMARK   12  A    between atoms: _22  and  _25
REMARK   13  A    between atoms: _25  and  _26
REMARK   14  A    between atoms: _32  and  _34
REMARK   15  A    between atoms: _34  and  _35
REMARK   16  A    between atoms: _34  and  _37
REMARK   17  A    between atoms: _37  and  _38
REMARK   18  A    between atoms: _41  and  _43
REMARK   19  A    between atoms: _43  and  _44
REMARK   20  A    between atoms: _43  and  _46
REMARK   21  A    between atoms: _46  and  _47
REMARK   22  A    between atoms: _47  and  _48
REMARK   23  A    between atoms: _48  and  _49
REMARK   24  A    between atoms: _58  and  _60
REMARK   25  A    between atoms: _60  and  _61
REMARK   26  A    between atoms: _60  and  _63
REMARK   27  A    between atoms: _63  and  _64
REMARK   28  A    between atoms: _67  and  _69
REMARK   29  A    between atoms: _69  and  _70
REMARK   30  A    between atoms: _69  and  _72
REMARK   31  A    between atoms: _72  and  _73
REMARK   32  A    between atoms: _73  and  _74
REMARK   33  A    between atoms: _78  and  _79
REMARK   34  A    between atoms: _84  and  _86
REMARK   35  A    between atoms: _86  and  _87
REMARK   36  A    between atoms: _86  and  _89
REMARK   37  A    between atoms: _89  and  _90
REMARK   38  A    between atoms: _93  and  _95
REMARK   39  A    between atoms: _95  and  _96
REMARK   40  A    between atoms: _95  and  _98
REMARK   41  A    between atoms: _98  and  _99
REMARK   42  A    between atoms: _102  and  _104
REMARK   43  A    between atoms: _104  and  _105
REMARK   44  A    between atoms: _107  and  _109
REMARK   45  A    between atoms: _109  and  _110
REMARK   46  A    between atoms: _109  and  _112
REMARK   47  A    between atoms: _112  and  _113
REMARK   48  A    between atoms: _113  and  _114
REMARK   49  A    between atoms: _117  and  _118
REMARK   50  A    between atoms: _123  and  _125
REMARK   51  A    between atoms: _125  and  _126
REMARK   52  A    between atoms: _125  and  _128
REMARK   53  A    between atoms: _128  and  _129
REMARK   54  A    between atoms: _129  and  _130
REMARK   55  A    between atoms: _130  and  _131
REMARK   56  A    between atoms: _131  and  _132
REMARK   57  A    between atoms: _137  and  _138
REMARK   58  A    between atoms: _143  and  _145
REMARK   59  A    between atoms: _145  and  _146
REMARK   60  A    between atoms: _145  and  _148
REMARK   61  A    between atoms: _148  and  _149
REMARK   62  A    between atoms: _149  and  _150
REMARK   63  A    between atoms: _154  and  _155
REMARK   64  A    between atoms: _160  and  _162
REMARK   65  A    between atoms: _162  and  _163
REMARK   66  A    between atoms: _162  and  _165
REMARK   67  A    between atoms: _165  and  _166
REMARK   68  A    between atoms: _171  and  _172
REMARK   69  A    between atoms: _174  and  _176
REMARK   70  A    between atoms: _176  and  _177
REMARK   71  A    between atoms: _176  and  _179
REMARK   72  A    between atoms: _179  and  _180
REMARK   73  A    between atoms: _183  and  _185
REMARK   74  A    between atoms: _185  and  _186
REMARK   75  A    between atoms: _185  and  _188
REMARK   76  A    between atoms: _191  and  _193
REMARK   77  A    between atoms: _193  and  _194
REMARK   78  A    between atoms: _193  and  _196
REMARK   79  A    between atoms: _196  and  _197
REMARK   80  A    between atoms: _200  and  _202
REMARK   81  A    between atoms: _202  and  _203
REMARK   82  A    between atoms: _206  and  _208
REMARK   83  A    between atoms: _208  and  _209
REMARK   84  A    between atoms: _208  and  _211
REMARK   85  A    between atoms: _211  and  _212
REMARK   86  A    between atoms: _212  and  _213
REMARK   87  A    between atoms: _215  and  _217
REMARK   88  A    between atoms: _217  and  _218
REMARK   89  A    between atoms: _217  and  _220
REMARK   90  A    between atoms: _220  and  _221
REMARK   91  A    between atoms: _224  and  _226
REMARK   92  A    between atoms: _226  and  _227
REMARK   93  A    between atoms: _230  and  _232
REMARK   94  A    between atoms: _232  and  _233
REMARK   95  A    between atoms: _235  and  _237
REMARK   96  A    between atoms: _237  and  _238
REMARK   97  A    between atoms: _237  and  _240
REMARK   98  A    between atoms: _240  and  _241
REMARK   99  A    between atoms: _241  and  _242
REMARK  100  A    between atoms: _245  and  _247
REMARK  101  A    between atoms: _247  and  _248
REMARK  102  A    between atoms: _247  and  _250
REMARK  103  A    between atoms: _250  and  _251
REMARK  104  A    between atoms: _255  and  _256
REMARK  105  A    between atoms: _262  and  _263
REMARK  106  A    between atoms: _268  and  _270
REMARK  107  A    between atoms: _270  and  _271
REMARK  108  A    between atoms: _270  and  _273
REMARK  109  A    between atoms: _273  and  _274
REMARK  110  A    between atoms: _274  and  _275
REMARK  111  A    between atoms: _275  and  _276
REMARK  112  A    between atoms: _276  and  _277
REMARK                            x       y       z     vdW  Elec       q    Type
REMARK                         _______ _______ _______ _____ _____    ______ ____
ROOT
ATOM      1  C   LYS A   1      18.964  -0.898  22.654  0.00  0.00    +0.241 C 
ATOM      2  N   PRO A   2      20.297  -1.014  22.572  0.00  0.00    -0.272 N 
ATOM      3  CD  PRO A   2      21.230  -1.428  23.633  0.00  0.00    +0.094 C 
ATOM      4  CG  PRO A   2      22.505  -0.719  23.242  0.00  0.00    +0.024 C 
ATOM      5  CB  PRO A   2      22.482  -0.728  21.736  0.00  0.00    +0.031 C 
ATOM      6  CA  PRO A   2      21.009  -0.522  21.384  0.00  0.00    +0.152 C 
ATOM      7  O   LYS A   1      18.287  -0.533  21.694  0.00  0.00    -0.273 OA
ENDROOT
BRANCH   6   8
ATOM      8  C   PRO A   2      20.628  -1.214  20.073  0.00  0.00    +0.241 C 
ATOM      9  N   GLU A   3      20.163  -2.458  20.162  0.00  0.00    -0.298 N 
ATOM     10  H   GLU A   3      20.143  -2.929  21.089  0.00  0.00    +0.150 HD
ATOM     11  O   PRO A   2      20.756  -0.623  19.001  0.00  0.00    -0.273 OA
BRANCH   9  12
ATOM     12  CA  GLU A   3      19.679  -3.176  18.983  0.00  0.00    +0.137 C 
BRANCH  12  13
ATOM     13  C   GLU A   3      18.438  -2.519  18.384  0.00  0.00    +0.227 C 
ATOM     14  O   GLU A   3      18.168  -2.653  17.190  0.00  0.00    -0.286 OA
ENDBRANCH  12  13
BRANCH  12  15
ATOM     15  CB  GLU A   3      19.353  -4.631  19.342  0.00  0.00    +0.039 C 
BRANCH  15  16
ATOM     16  CG  GLU A   3      20.547  -5.445  19.827  0.00  0.00    +0.116 C 
BRANCH  16  17
ATOM     17  CD  GLU A   3      20.684  -5.463  21.344  0.00  0.00    +0.365 C 
ATOM     18  OE2 GLU A   3      20.436  -4.422  21.991  0.00  0.00    -0.246 OA
ATOM     19  OE1 GLU A   3      21.042  -6.529  21.891  0.00  0.00    -0.246 OA
ENDBRANCH  16  17
ENDBRANCH  15  16
ENDBRANCH  12  15
ENDBRANCH   9  12
ENDBRANCH   6   8
BRANCH   1  20
ATOM     20  CA  LYS A   1      18.302  -1.208  23.995  0.00  0.00    +0.145 C 
BRANCH  20  21
ATOM     21  N   LYS A   1      16.957  -0.641  23.943  0.00  0.00    -0.238 NA
ATOM     22  H   LYS A   1      16.601  -0.294  23.029  0.00  0.00    +0.142 HD
ENDBRANCH  20  21
BRANCH  20  23
ATOM     23  CB  LYS A   1      18.240  -2.726  24.237  0.00  0.00    +0.026 C 
BRANCH  23  24
ATOM     24  CG  LYS A   1      17.401  -3.506  23.221  0.00  0.00    -0.000 C 
BRANCH  24  25
ATOM     25  CD  LYS A   1      17.376  -4.997  23.561  0.00  0.00    -0.024 C 
BRANCH  25  26
ATOM     26  CE  LYS A   1      16.539  -5.780  22.560  0.00  0.00    -0.086 C 
BRANCH  26  27
ATOM     27  NZ  LYS A   1      16.464  -7.242  22.880  0.00  0.00    +0.380 N 
ATOM     28  HZ1 LYS A   1      16.036  -7.369  23.819  0.00  0.00    -0.089 HD
ATOM     29  HZ2 LYS A   1      17.422  -7.646  22.877  0.00  0.00    -0.089 HD
ATOM     30  HZ3 LYS A   1      15.882  -7.723  22.165  0.00  0.00    -0.089 HD
ENDBRANCH  26  27
ENDBRANCH  25  26
ENDBRANCH  24  25
ENDBRANCH  23  24
ENDBRANCH  20  23
ENDBRANCH   1  20
TORSDOF 13
REMARK  Name = ../refined-set-2016/3jvr/3jvr_pocket.pdb
REMARK  112 active torsions:
REMARK  status: ('A' for Active; 'I' for Inactive)
REMARK    1  A    between atoms: _1  and  _3
REMARK    2  A    between atoms: _3  and  _4
REMARK    3  A    between atoms: _3  and  _6
REMARK    4  A    between atoms: _6  and  _7
REMARK    5  A    between atoms: _7  and  _8
REMARK    6  A    between atoms: _11  and  _13
REMARK    7  A    between atoms: _13  and  _14
REMARK    8  A    between atoms: _13  and  _16
REMARK    9  A    between atoms: _16  and  _17
REMARK   10  A    between atoms: _20  and  _22
REMARK   11  A    between atoms: _22  and  _23
REMARK   12  A    between atoms: _22  and  _25
REMARK   13  A    between atoms: _25  and  _26
REMARK   14  A    between atoms: _32  and  _34
REMARK   15  A    between atoms: _34  and  _35
REMARK   16  A    between atoms: _34  and  _37
REMARK   17  A    between atoms: _37  and  _38
REMARK   18  A    between atoms: _41  and  _43
REMARK   19  A    between atoms: _43  and  _44
REMARK   20  A    between atoms: _43  and  _46
REMARK   21  A    between atoms: _46  and  _47
REMARK   22  A    between atoms: _47  and  _48
REMARK   23  A    between atoms: _48  and  _49
REMARK   24  A    between atoms: _58  and  _60
REMARK   25  A    between atoms: _60  and  _61
REMARK   26  A    between atoms: _60  and  _63
REMARK   27  A    between atoms: _63  and  _64
REMARK   28  A    between atoms: _67  and  _69
REMARK   29  A    between atoms: _69  and  _70
REMARK   30  A    between atoms: _69  and  _72
REMARK   31  A    between atoms: _72  and  _73
REMARK   32  A    between atoms: _73  and  _74
REMARK   33  A    between atoms: _78  and  _79
REMARK   34  A    between atoms: _84  and  _86
REMARK   35  A    between atoms: _86  and  _87
REMARK   36  A    between atoms: _86  and  _89
REMARK   37  A    between atoms: _89  and  _90
REMARK   38  A    between atoms: _93  and  _95
REMARK   39  A    between atoms: _95  and  _96
REMARK   40  A    between atoms: _95  and  _98
REMARK   41  A    between atoms: _98  and  _99
REMARK   42  A    between atoms: _102  and  _104
REMARK   43  A    between atoms: _104  and  _105
REMARK   44  A    between atoms: _107  and  _109
REMARK   45  A    between atoms: _109  and  _110
REMARK   46  A    between atoms: _109  and  _112
REMARK   47  A    between atoms: _112  and  _113
REMARK   48  A    between atoms: _113  and  _114
REMARK   49  A    between atoms: _117  and  _118
REMARK   50  A    between atoms: _123  and  _125
REMARK   51  A    between atoms: _125  and  _126
REMARK   52  A    between atoms: _125  and  _128
REMARK   53  A    between atoms: _128  and  _129
REMARK   54  A    between atoms: _129  and  _130
REMARK   55  A    between atoms: _130  and  _131
REMARK   56  A    between atoms: _131  and  _132
REMARK   57  A    between atoms: _137  and  _138
REMARK   58  A    between atoms: _143  and  _145
REMARK   59  A    between atoms: _145  and  _146
REMARK   60  A    between atoms: _145  and  _148
REMARK   61  A    between atoms: _148  and  _149
REMARK   62  A    between atoms: _149  and  _150
REMARK   63  A    between atoms: _154  and  _155
REMARK   64  A    between atoms: _160  and  _162
REMARK   65  A    between atoms: _162  and  _163
REMARK   66  A    between atoms: _162  and  _165
REMARK   67  A    between atoms: _165  and  _166
REMARK   68  A    between atoms: _171  and  _172
REMARK   69  A    between atoms: _174  and  _176
REMARK   70  A    between atoms: _176  and  _177
REMARK   71  A    between atoms: _176  and  _179
REMARK   72  A    between atoms: _179  and  _180
REMARK   73  A    between atoms: _183  and  _185
REMARK   74  A    between atoms: _185  and  _186
REMARK   75  A    between atoms: _185  and  _188
REMARK   76  A    between atoms: _191  and  _193
REMARK   77  A    between atoms: _193  and  _194
REMARK   78  A    between atoms: _193  and  _196
REMARK   79  A    between atoms: _196  and  _197
REMARK   80  A    between atoms: _200  and  _202
REMARK   81  A    between atoms: _202  and  _203
REMARK   82  A    between atoms: _206  and  _208
REMARK   83  A    between atoms: _208  and  _209
REMARK   84  A    between atoms: _208  and  _211
REMARK   85  A    between atoms: _211  and  _212
REMARK   86  A    between atoms: _212  and  _213
REMARK   87  A    between atoms: _215  and  _217
REMARK   88  A    between atoms: _217  and  _218
REMARK   89  A    between atoms: _217  and  _220
REMARK   90  A    between atoms: _220  and  _221
REMARK   91  A    between atoms: _224  and  _226
REMARK   92  A    between atoms: _226  and  _227
REMARK   93  A    between atoms: _230  and  _232
REMARK   94  A    between atoms: _232  and  _233
REMARK   95  A    between atoms: _235  and  _237
REMARK   96  A    between atoms: _237  and  _238
REMARK   97  A    between atoms: _237  and  _240
REMARK   98  A    between atoms: _240  and  _241
REMARK   99  A    between atoms: _241  and  _242
REMARK  100  A    between atoms: _245  and  _247
REMARK  101  A    between atoms: _247  and  _248
REMARK  102  A    between atoms: _247  and  _250
REMARK  103  A    between atoms: _250  and  _251
REMARK  104  A    between atoms: _255  and  _256
REMARK  105  A    between atoms: _262  and  _263
REMARK  106  A    between atoms: _268  and  _270
REMARK  107  A    between atoms: _270  and  _271
REMARK  108  A    between atoms: _270  and  _273
REMARK  109  A    between atoms: _273  and  _274
REMARK  110  A    between atoms: _274  and  _275
REMARK  111  A    between atoms: _275  and  _276
REMARK  112  A    between atoms: _276  and  _277
REMARK                            x       y       z     vdW  Elec       q    Type
REMARK                         _______ _______ _______ _____ _____    ______ ____
ROOT
ATOM      1  CA  TYR A   2      18.093  -3.493  30.418  0.00  0.00    +0.141 C 
ENDROOT
BRANCH   1   4
ATOM      2  C   PRO A   1      19.661  -5.146  31.307  0.00  0.00    +0.239 C 
ATOM      3  O   PRO A   1      20.224  -4.311  32.018  0.00  0.00    -0.274 OA
ATOM      4  N   TYR A   2      18.608  -4.855  30.544  0.00  0.00    -0.298 N 
ATOM      5  H   TYR A   2      18.138  -5.621  30.022  0.00  0.00    +0.150 HD
BRANCH   2   7
ATOM      6  N   PRO A   1      19.119  -7.562  30.866  0.00  0.00    -0.210 NA
ATOM      7  CA  PRO A   1      20.148  -6.597  31.279  0.00  0.00    +0.149 C 
ATOM      8  CB  PRO A   1      21.271  -6.808  30.262  0.00  0.00    +0.028 C 
ATOM      9  CG  PRO A   1      21.071  -8.225  29.788  0.00  0.00    +0.021 C 
ATOM     10  CD  PRO A   1      19.581  -8.412  29.755  0.00  0.00    +0.089 C 
ENDBRANCH   2   7
ENDBRANCH   1   4
BRANCH   1  11
ATOM     11  C   TYR A   2      16.844  -3.236  31.264  0.00  0.00    +0.227 C 
ATOM     12  O   TYR A   2      16.376  -2.100  31.369  0.00  0.00    -0.286 OA
ENDBRANCH   1  11
BRANCH   1  13
ATOM     13  CB  TYR A   2      17.770  -3.196  28.948  0.00  0.00    +0.054 C 
BRANCH  13  14
ATOM     14  CG  TYR A   2      18.965  -3.308  28.031  0.00  0.00    -0.020 A 
ATOM     15  CD2 TYR A   2      19.793  -2.218  27.812  0.00  0.00    -0.001 A 
ATOM     16  CE2 TYR A   2      20.910  -2.317  27.011  0.00  0.00    +0.036 A 
ATOM     17  CZ  TYR A   2      21.215  -3.521  26.412  0.00  0.00    +0.134 A 
ATOM     18  CE1 TYR A   2      20.405  -4.624  26.606  0.00  0.00    +0.036 A 
ATOM     19  CD1 TYR A   2      19.285  -4.512  27.412  0.00  0.00    -0.001 A 
BRANCH  17  20
ATOM     20  OH  TYR A   2      22.339  -3.610  25.627  0.00  0.00    -0.506 OA
ATOM     21  HH  TYR A   2      22.079  -3.875  24.709  0.00  0.00    +0.292 HD
ENDBRANCH  17  20
ENDBRANCH  13  14
ENDBRANCH   1  13
TORSDOF 6
REMARK  Name = ../refined-set-2016/3jvr/3jvr_pocket.pdb
REMARK  112 active torsions:
REMARK  status: ('A' for Active; 'I' for Inactive)
REMARK    1  A    between atoms: _1  and  _3
REMARK    2  A    between atoms: _3  and  _4
REMARK    3  A    between atoms: _3  and  _6
REMARK    4  A    between atoms: _6  and  _7
REMARK    5  A    between atoms: _7  and  _8
REMARK    6  A    between atoms: _11  and  _13
REMARK    7  A    between atoms: _13  and  _14
REMARK    8  A    between atoms: _13  and  _16
REMARK    9  A    between atoms: _16  and  _17
REMARK   10  A    between atoms: _20  and  _22
REMARK   11  A    between atoms: _22  and  _23
REMARK   12  A    between atoms: _22  and  _25
REMARK   13  A    between atoms: _25  and  _26
REMARK   14  A    between atoms: _32  and  _34
REMARK   15  A    between atoms: _34  and  _35
REMARK   16  A    between atoms: _34  and  _37
REMARK   17  A    between atoms: _37  and  _38
REMARK   18  A    between atoms: _41  and  _43
REMARK   19  A    between atoms: _43  and  _44
REMARK   20  A    between atoms: _43  and  _46
REMARK   21  A    between atoms: _46  and  _47
REMARK   22  A    between atoms: _47  and  _48
REMARK   23  A    between atoms: _48  and  _49
REMARK   24  A    between atoms: _58  and  _60
REMARK   25  A    between atoms: _60  and  _61
REMARK   26  A    between atoms: _60  and  _63
REMARK   27  A    between atoms: _63  and  _64
REMARK   28  A    between atoms: _67  and  _69
REMARK   29  A    between atoms: _69  and  _70
REMARK   30  A    between atoms: _69  and  _72
REMARK   31  A    between atoms: _72  and  _73
REMARK   32  A    between atoms: _73  and  _74
REMARK   33  A    between atoms: _78  and  _79
REMARK   34  A    between atoms: _84  and  _86
REMARK   35  A    between atoms: _86  and  _87
REMARK   36  A    between atoms: _86  and  _89
REMARK   37  A    between atoms: _89  and  _90
REMARK   38  A    between atoms: _93  and  _95
REMARK   39  A    between atoms: _95  and  _96
REMARK   40  A    between atoms: _95  and  _98
REMARK   41  A    between atoms: _98  and  _99
REMARK   42  A    between atoms: _102  and  _104
REMARK   43  A    between atoms: _104  and  _105
REMARK   44  A    between atoms: _107  and  _109
REMARK   45  A    between atoms: _109  and  _110
REMARK   46  A    between atoms: _109  and  _112
REMARK   47  A    between atoms: _112  and  _113
REMARK   48  A    between atoms: _113  and  _114
REMARK   49  A    between atoms: _117  and  _118
REMARK   50  A    between atoms: _123  and  _125
REMARK   51  A    between atoms: _125  and  _126
REMARK   52  A    between atoms: _125  and  _128
REMARK   53  A    between atoms: _128  and  _129
REMARK   54  A    between atoms: _129  and  _130
REMARK   55  A    between atoms: _130  and  _131
REMARK   56  A    between atoms: _131  and  _132
REMARK   57  A    between atoms: _137  and  _138
REMARK   58  A    between atoms: _143  and  _145
REMARK   59  A    between atoms: _145  and  _146
REMARK   60  A    between atoms: _145  and  _148
REMARK   61  A    between atoms: _148  and  _149
REMARK   62  A    between atoms: _149  and  _150
REMARK   63  A    between atoms: _154  and  _155
REMARK   64  A    between atoms: _160  and  _162
REMARK   65  A    between atoms: _162  and  _163
REMARK   66  A    between atoms: _162  and  _165
REMARK   67  A    between atoms: _165  and  _166
REMARK   68  A    between atoms: _171  and  _172
REMARK   69  A    between atoms: _174  and  _176
REMARK   70  A    between atoms: _176  and  _177
REMARK   71  A    between atoms: _176  and  _179
REMARK   72  A    between atoms: _179  and  _180
REMARK   73  A    between atoms: _183  and  _185
REMARK   74  A    between atoms: _185  and  _186
REMARK   75  A    between atoms: _185  and  _188
REMARK   76  A    between atoms: _191  and  _193
REMARK   77  A    between atoms: _193  and  _194
REMARK   78  A    between atoms: _193  and  _196
REMARK   79  A    between atoms: _196  and  _197
REMARK   80  A    between atoms: _200  and  _202
REMARK   81  A    between atoms: _202  and  _203
REMARK   82  A    between atoms: _206  and  _208
REMARK   83  A    between atoms: _208  and  _209
REMARK   84  A    between atoms: _208  and  _211
REMARK   85  A    between atoms: _211  and  _212
REMARK   86  A    between atoms: _212  and  _213
REMARK   87  A    between atoms: _215  and  _217
REMARK   88  A    between atoms: _217  and  _218
REMARK   89  A    between atoms: _217  and  _220
REMARK   90  A    between atoms: _220  and  _221
REMARK   91  A    between atoms: _224  and  _226
REMARK   92  A    between atoms: _226  and  _227
REMARK   93  A    between atoms: _230  and  _232
REMARK   94  A    between atoms: _232  and  _233
REMARK   95  A    between atoms: _235  and  _237
REMARK   96  A    between atoms: _237  and  _238
REMARK   97  A    between atoms: _237  and  _240
REMARK   98  A    between atoms: _240  and  _241
REMARK   99  A    between atoms: _241  and  _242
REMARK  100  A    between atoms: _245  and  _247
REMARK  101  A    between atoms: _247  and  _248
REMARK  102  A    between atoms: _247  and  _250
REMARK  103  A    between atoms: _250  and  _251
REMARK  104  A    between atoms: _255  and  _256
REMARK  105  A    between atoms: _262  and  _263
REMARK  106  A    between atoms: _268  and  _270
REMARK  107  A    between atoms: _270  and  _271
REMARK  108  A    between atoms: _270  and  _273
REMARK  109  A    between atoms: _273  and  _274
REMARK  110  A    between atoms: _274  and  _275
REMARK  111  A    between atoms: _275  and  _276
REMARK  112  A    between atoms: _276  and  _277
REMARK                            x       y       z     vdW  Elec       q    Type
REMARK                         _______ _______ _______ _____ _____    ______ ____
ROOT
ATOM      1  C   ILE A   1      22.242   1.264  29.505  0.00  0.00    +0.238 C 
ATOM      2  O   ILE A   1      23.419   0.967  29.295  0.00  0.00    -0.274 OA
ATOM      3  N   VAL A   2      21.462   1.790  28.563  0.00  0.00    -0.298 N 
ATOM      4  H   VAL A   2      20.454   1.952  28.760  0.00  0.00    +0.150 HD
ENDROOT
BRANCH   1   5
ATOM      5  CA  ILE A   1      21.609   1.054  30.878  0.00  0.00    +0.145 C 
BRANCH   5   6
ATOM      6  N   ILE A   1      20.748   2.194  31.187  0.00  0.00    -0.238 NA
ATOM      7  H   ILE A   1      19.717   2.066  31.224  0.00  0.00    +0.142 HD
ENDBRANCH   5   6
BRANCH   5   8
ATOM      8  CB  ILE A   1      20.810  -0.272  30.875  0.00  0.00    +0.025 C 
ATOM      9  CG2 ILE A   1      21.731  -1.430  30.495  0.00  0.00    +0.002 C 
BRANCH   8  10
ATOM     10  CG1 ILE A   1      20.190  -0.520  32.253  0.00  0.00    +0.002 C 
ATOM     11  CD1 ILE A   1      21.214  -0.728  33.368  0.00  0.00    +0.000 C 
ENDBRANCH   8  10
ENDBRANCH   5   8
ENDBRANCH   1   5
BRANCH   3  12
ATOM     12  CA  VAL A   2      22.009   2.141  27.257  0.00  0.00    +0.137 C 
BRANCH  12  13
ATOM     13  CB  VAL A   2      20.928   2.738  26.327  0.00  0.00    +0.026 C 
ATOM     14  CG2 VAL A   2      19.922   1.650  25.936  0.00  0.00    +0.002 C 
ATOM     15  CG1 VAL A   2      21.577   3.309  25.068  0.00  0.00    +0.002 C 
ENDBRANCH  12  13
BRANCH  12  16
ATOM     16  C   VAL A   2      23.149   3.154  27.399  0.00  0.00    +0.227 C 
ATOM     17  O   VAL A   2      24.192   3.021  26.756  0.00  0.00    -0.286 OA
ENDBRANCH  12  16
ENDBRANCH   3  12
TORSDOF 7
REMARK  Name = ../refined-set-2016/3jvr/3jvr_pocket.pdb
REMARK  112 active torsions:
REMARK  status: ('A' for Active; 'I' for Inactive)
REMARK    1  A    between atoms: _1  and  _3
REMARK    2  A    between atoms: _3  and  _4
REMARK    3  A    between atoms: _3  and  _6
REMARK    4  A    between atoms: _6  and  _7
REMARK    5  A    between atoms: _7  and  _8
REMARK    6  A    between atoms: _11  and  _13
REMARK    7  A    between atoms: _13  and  _14
REMARK    8  A    between atoms: _13  and  _16
REMARK    9  A    between atoms: _16  and  _17
REMARK   10  A    between atoms: _20  and  _22
REMARK   11  A    between atoms: _22  and  _23
REMARK   12  A    between atoms: _22  and  _25
REMARK   13  A    between atoms: _25  and  _26
REMARK   14  A    between atoms: _32  and  _34
REMARK   15  A    between atoms: _34  and  _35
REMARK   16  A    between atoms: _34  and  _37
REMARK   17  A    between atoms: _37  and  _38
REMARK   18  A    between atoms: _41  and  _43
REMARK   19  A    between atoms: _43  and  _44
REMARK   20  A    between atoms: _43  and  _46
REMARK   21  A    between atoms: _46  and  _47
REMARK   22  A    between atoms: _47  and  _48
REMARK   23  A    between atoms: _48  and  _49
REMARK   24  A    between atoms: _58  and  _60
REMARK   25  A    between atoms: _60  and  _61
REMARK   26  A    between atoms: _60  and  _63
REMARK   27  A    between atoms: _63  and  _64
REMARK   28  A    between atoms: _67  and  _69
REMARK   29  A    between atoms: _69  and  _70
REMARK   30  A    between atoms: _69  and  _72
REMARK   31  A    between atoms: _72  and  _73
REMARK   32  A    between atoms: _73  and  _74
REMARK   33  A    between atoms: _78  and  _79
REMARK   34  A    between atoms: _84  and  _86
REMARK   35  A    between atoms: _86  and  _87
REMARK   36  A    between atoms: _86  and  _89
REMARK   37  A    between atoms: _89  and  _90
REMARK   38  A    between atoms: _93  and  _95
REMARK   39  A    between atoms: _95  and  _96
REMARK   40  A    between atoms: _95  and  _98
REMARK   41  A    between atoms: _98  and  _99
REMARK   42  A    between atoms: _102  and  _104
REMARK   43  A    between atoms: _104  and  _105
REMARK   44  A    between atoms: _107  and  _109
REMARK   45  A    between atoms: _109  and  _110
REMARK   46  A    between atoms: _109  and  _112
REMARK   47  A    between atoms: _112  and  _113
REMARK   48  A    between atoms: _113  and  _114
REMARK   49  A    between atoms: _117  and  _118
REMARK   50  A    between atoms: _123  and  _125
REMARK   51  A    between atoms: _125  and  _126
REMARK   52  A    between atoms: _125  and  _128
REMARK   53  A    between atoms: _128  and  _129
REMARK   54  A    between atoms: _129  and  _130
REMARK   55  A    between atoms: _130  and  _131
REMARK   56  A    between atoms: _131  and  _132
REMARK   57  A    between atoms: _137  and  _138
REMARK   58  A    between atoms: _143  and  _145
REMARK   59  A    between atoms: _145  and  _146
REMARK   60  A    between atoms: _145  and  _148
REMARK   61  A    between atoms: _148  and  _149
REMARK   62  A    between atoms: _149  and  _150
REMARK   63  A    between atoms: _154  and  _155
REMARK   64  A    between atoms: _160  and  _162
REMARK   65  A    between atoms: _162  and  _163
REMARK   66  A    between atoms: _162  and  _165
REMARK   67  A    between atoms: _165  and  _166
REMARK   68  A    between atoms: _171  and  _172
REMARK   69  A    between atoms: _174  and  _176
REMARK   70  A    between atoms: _176  and  _177
REMARK   71  A    between atoms: _176  and  _179
REMARK   72  A    between atoms: _179  and  _180
REMARK   73  A    between atoms: _183  and  _185
REMARK   74  A    between atoms: _185  and  _186
REMARK   75  A    between atoms: _185  and  _188
REMARK   76  A    between atoms: _191  and  _193
REMARK   77  A    between atoms: _193  and  _194
REMARK   78  A    between atoms: _193  and  _196
REMARK   79  A    between atoms: _196  and  _197
REMARK   80  A    between atoms: _200  and  _202
REMARK   81  A    between atoms: _202  and  _203
REMARK   82  A    between atoms: _206  and  _208
REMARK   83  A    between atoms: _208  and  _209
REMARK   84  A    between atoms: _208  and  _211
REMARK   85  A    between atoms: _211  and  _212
REMARK   86  A    between atoms: _212  and  _213
REMARK   87  A    between atoms: _215  and  _217
REMARK   88  A    between atoms: _217  and  _218
REMARK   89  A    between atoms: _217  and  _220
REMARK   90  A    between atoms: _220  and  _221
REMARK   91  A    between atoms: _224  and  _226
REMARK   92  A    between atoms: _226  and  _227
REMARK   93  A    between atoms: _230  and  _232
REMARK   94  A    between atoms: _232  and  _233
REMARK   95  A    between atoms: _235  and  _237
REMARK   96  A    between atoms: _237  and  _238
REMARK   97  A    between atoms: _237  and  _240
REMARK   98  A    between atoms: _240  and  _241
REMARK   99  A    between atoms: _241  and  _242
REMARK  100  A    between atoms: _245  and  _247
REMARK  101  A    between atoms: _247  and  _248
REMARK  102  A    between atoms: _247  and  _250
REMARK  103  A    between atoms: _250  and  _251
REMARK  104  A    between atoms: _255  and  _256
REMARK  105  A    between atoms: _262  and  _263
REMARK  106  A    between atoms: _268  and  _270
REMARK  107  A    between atoms: _270  and  _271
REMARK  108  A    between atoms: _270  and  _273
REMARK  109  A    between atoms: _273  and  _274
REMARK  110  A    between atoms: _274  and  _275
REMARK  111  A    between atoms: _275  and  _276
REMARK  112  A    between atoms: _276  and  _277
REMARK                            x       y       z     vdW  Elec       q    Type
REMARK                         _______ _______ _______ _____ _____    ______ ____
ROOT
ATOM      1  C   LEU A   4      31.284   3.963  28.492  0.00  0.00    +0.241 C 
ATOM      2  O   LEU A   4      32.403   4.341  28.841  0.00  0.00    -0.273 OA
ATOM      3  N   ALA A   5      30.912   2.689  28.563  0.00  0.00    -0.297 N 
ATOM      4  H   ALA A   5      29.987   2.396  28.188  0.00  0.00    +0.150 HD
ENDROOT
BRANCH   3   5
ATOM      5  CA  ALA A   5      31.803   1.699  29.169  0.00  0.00    +0.149 C 
ATOM      6  CB  ALA A   5      31.226   1.215  30.494  0.00  0.00    +0.031 C 
BRANCH   5   7
ATOM      7  C   ALA A   5      32.082   0.515  28.259  0.00  0.00    +0.241 C 
ATOM      8  O   ALA A   5      33.051  -0.218  28.466  0.00  0.00    -0.273 OA
ATOM      9  N   GLY A   6      31.234   0.324  27.253  0.00  0.00    -0.295 N 
ATOM     10  H   GLY A   6      30.445   0.986  27.107  0.00  0.00    +0.150 HD
BRANCH   9  11
ATOM     11  CA  GLY A   6      31.406  -0.804  26.359  0.00  0.00    +0.176 C 
BRANCH  11  12
ATOM     12  C   GLY A   6      31.172  -2.129  27.065  0.00  0.00    +0.243 C 
ATOM     13  N   GLU A   7      30.496  -2.082  28.207  0.00  0.00    -0.297 N 
ATOM     14  H   GLU A   7      30.298  -1.160  28.645  0.00  0.00    +0.150 HD
ATOM     15  O   GLY A   6      31.618  -3.178  26.598  0.00  0.00    -0.273 OA
BRANCH  13  16
ATOM     16  CA  GLU A   7      30.026  -3.297  28.858  0.00  0.00    +0.149 C 
BRANCH  16  17
ATOM     17  C   GLU A   7      28.709  -3.027  29.576  0.00  0.00    +0.241 C 
ATOM     18  O   GLU A   7      28.426  -1.894  29.965  0.00  0.00    -0.273 OA
ATOM     19  N   LEU A   8      27.896  -4.066  29.723  0.00  0.00    -0.297 N 
ATOM     20  H   LEU A   8      28.153  -4.978  29.295  0.00  0.00    +0.150 HD
BRANCH  19  21
ATOM     21  CA  LEU A   8      26.650  -3.956  30.472  0.00  0.00    +0.149 C 
BRANCH  21  22
ATOM     22  C   LEU A   8      26.958  -4.286  31.924  0.00  0.00    +0.244 C 
ATOM     23  N   PRO A   9      26.344  -3.551  32.861  0.00  0.00    -0.273 N 
ATOM     24  CA  PRO A   9      26.684  -3.602  34.287  0.00  0.00    +0.140 C 
ATOM     25  CB  PRO A   9      25.954  -2.397  34.873  0.00  0.00    +0.030 C 
ATOM     26  CG  PRO A   9      24.812  -2.158  33.935  0.00  0.00    +0.024 C 
ATOM     27  CD  PRO A   9      25.329  -2.521  32.573  0.00  0.00    +0.094 C 
ATOM     28  O   LEU A   8      27.748  -5.187  32.208  0.00  0.00    -0.273 OA
BRANCH  24  29
ATOM     29  C   PRO A   9      26.320  -4.901  35.007  0.00  0.00    +0.227 C 
ATOM     30  O   PRO A   9      27.041  -5.333  35.909  0.00  0.00    -0.286 OA
ENDBRANCH  24  29
ENDBRANCH  21  22
BRANCH  21  31
ATOM     31  CB  LEU A   8      25.603  -4.929  29.914  0.00  0.00    +0.029 C 
BRANCH  31  32
ATOM     32  CG  LEU A   8      25.157  -4.665  28.470  0.00  0.00    +0.002 C 
ATOM     33  CD2 LEU A   8      24.462  -3.314  28.404  0.00  0.00    +0.000 C 
ATOM     34  CD1 LEU A   8      24.229  -5.767  27.983  0.00  0.00    +0.000 C 
ENDBRANCH  31  32
ENDBRANCH  21  31
ENDBRANCH  19  21
ENDBRANCH  16  17
BRANCH  16  35
ATOM     35  CB  GLU A   7      31.076  -3.834  29.843  0.00  0.00    +0.041 C 
BRANCH  35  36
ATOM     36  CG  GLU A   7      31.444  -2.900  30.978  0.00  0.00    +0.116 C 
BRANCH  36  37
ATOM     37  CD  GLU A   7      32.451  -3.523  31.935  0.00  0.00    +0.365 C 
ATOM     38  OE2 GLU A   7      33.317  -2.787  32.450  0.00  0.00    -0.246 OA
ATOM     39  OE1 GLU A   7      32.374  -4.748  32.172  0.00  0.00    -0.246 OA
ENDBRANCH  36  37
ENDBRANCH  35  36
ENDBRANCH  16  35
ENDBRANCH  13  16
ENDBRANCH  11  12
ENDBRANCH   9  11
ENDBRANCH   5   7
ENDBRANCH   3   5
BRANCH   1  40
ATOM     40  CA  LEU A   4      30.261   4.973  27.967  0.00  0.00    +0.149 C 
BRANCH  40  42
ATOM     41  C   MET A   3      29.056   4.213  25.992  0.00  0.00    +0.241 C 
ATOM     42  N   LEU A   4      29.095   4.374  27.311  0.00  0.00    -0.297 N 
ATOM     43  H   LEU A   4      28.284   4.070  27.887  0.00  0.00    +0.150 HD
ATOM     44  O   MET A   3      30.016   4.474  25.259  0.00  0.00    -0.273 OA
BRANCH  41  45
ATOM     45  CA  MET A   3      27.758   3.674  25.403  0.00  0.00    +0.149 C 
BRANCH  45  47
ATOM     46  C   ALA A   2      27.640   1.576  26.614  0.00  0.00    +0.241 C 
ATOM     47  N   MET A   3      27.088   2.745  26.310  0.00  0.00    -0.297 N 
ATOM     48  H   MET A   3      26.168   3.002  26.722  0.00  0.00    +0.150 HD
ATOM     49  O   ALA A   2      28.740   1.230  26.187  0.00  0.00    -0.273 OA
BRANCH  46  50
ATOM     50  CA  ALA A   2      26.844   0.659  27.534  0.00  0.00    +0.149 C 
ATOM     51  CB  ALA A   2      25.756  -0.064  26.732  0.00  0.00    +0.031 C 
BRANCH  50  54
ATOM     52  C   THR A   1      26.979   2.126  29.479  0.00  0.00    +0.241 C 
ATOM     53  O   THR A   1      28.212   2.193  29.409  0.00  0.00    -0.274 OA
ATOM     54  N   ALA A   2      26.244   1.411  28.632  0.00  0.00    -0.297 N 
ATOM     55  H   ALA A   2      25.212   1.387  28.756  0.00  0.00    +0.150 HD
BRANCH  52  56
ATOM     56  CA  THR A   1      26.211   2.893  30.558  0.00  0.00    +0.172 C 
BRANCH  56  57
ATOM     57  N   THR A   1      25.075   3.609  29.975  0.00  0.00    -0.236 NA
ATOM     58  H   THR A   1      24.114   3.403  30.314  0.00  0.00    +0.142 HD
ENDBRANCH  56  57
BRANCH  56  59
ATOM     59  CB  THR A   1      25.744   1.900  31.650  0.00  0.00    +0.135 C 
ATOM     60  CG2 THR A   1      26.947   1.197  32.289  0.00  0.00    +0.034 C 
BRANCH  59  61
ATOM     61  OG1 THR A   1      25.032   2.614  32.668  0.00  0.00    -0.383 OA
ATOM     62  HG1 THR A   1      24.244   3.060  32.267  0.00  0.00    +0.210 HD
ENDBRANCH  59  61
ENDBRANCH  56  59
ENDBRANCH  52  56
ENDBRANCH  50  54
ENDBRANCH  46  50
ENDBRANCH  45  47
BRANCH  45  63
ATOM     63  CB  MET A   3      26.832   4.846  25.042  0.00  0.00    +0.041 C 
BRANCH  63  64
ATOM     64  CG  MET A   3      25.656   4.452  24.150  0.00  0.00    +0.060 C 
BRANCH  64  65
ATOM     65  SD  MET A   3      24.889   5.865  23.313  0.00  0.00    -0.139 S 
ATOM     66  CE  MET A   3      24.098   6.709  24.723  0.00  0.00    +0.069 C 
ENDBRANCH  64  65
ENDBRANCH  63  64
ENDBRANCH  45  63
ENDBRANCH  41  45
ENDBRANCH  40  42
BRANCH  40  67
ATOM     67  CB  LEU A   4      29.815   5.877  29.118  0.00  0.00    +0.029 C 
BRANCH  67  68
ATOM     68  CG  LEU A   4      28.976   7.087  28.690  0.00  0.00    +0.002 C 
ATOM     69  CD2 LEU A   4      28.565   7.894  29.916  0.00  0.00    +0.000 C 
ATOM     70  CD1 LEU A   4      29.780   7.945  27.731  0.00  0.00    +0.000 C 
ENDBRANCH  67  68
ENDBRANCH  40  67
ENDBRANCH   1  40
TORSDOF 29
REMARK  Name = ../refined-set-2016/3jvr/3jvr_pocket.pdb
REMARK  112 active torsions:
REMARK  status: ('A' for Active; 'I' for Inactive)
REMARK    1  A    between atoms: _1  and  _3
REMARK    2  A    between atoms: _3  and  _4
REMARK    3  A    between atoms: _3  and  _6
REMARK    4  A    between atoms: _6  and  _7
REMARK    5  A    between atoms: _7  and  _8
REMARK    6  A    between atoms: _11  and  _13
REMARK    7  A    between atoms: _13  and  _14
REMARK    8  A    between atoms: _13  and  _16
REMARK    9  A    between atoms: _16  and  _17
REMARK   10  A    between atoms: _20  and  _22
REMARK   11  A    between atoms: _22  and  _23
REMARK   12  A    between atoms: _22  and  _25
REMARK   13  A    between atoms: _25  and  _26
REMARK   14  A    between atoms: _32  and  _34
REMARK   15  A    between atoms: _34  and  _35
REMARK   16  A    between atoms: _34  and  _37
REMARK   17  A    between atoms: _37  and  _38
REMARK   18  A    between atoms: _41  and  _43
REMARK   19  A    between atoms: _43  and  _44
REMARK   20  A    between atoms: _43  and  _46
REMARK   21  A    between atoms: _46  and  _47
REMARK   22  A    between atoms: _47  and  _48
REMARK   23  A    between atoms: _48  and  _49
REMARK   24  A    between atoms: _58  and  _60
REMARK   25  A    between atoms: _60  and  _61
REMARK   26  A    between atoms: _60  and  _63
REMARK   27  A    between atoms: _63  and  _64
REMARK   28  A    between atoms: _67  and  _69
REMARK   29  A    between atoms: _69  and  _70
REMARK   30  A    between atoms: _69  and  _72
REMARK   31  A    between atoms: _72  and  _73
REMARK   32  A    between atoms: _73  and  _74
REMARK   33  A    between atoms: _78  and  _79
REMARK   34  A    between atoms: _84  and  _86
REMARK   35  A    between atoms: _86  and  _87
REMARK   36  A    between atoms: _86  and  _89
REMARK   37  A    between atoms: _89  and  _90
REMARK   38  A    between atoms: _93  and  _95
REMARK   39  A    between atoms: _95  and  _96
REMARK   40  A    between atoms: _95  and  _98
REMARK   41  A    between atoms: _98  and  _99
REMARK   42  A    between atoms: _102  and  _104
REMARK   43  A    between atoms: _104  and  _105
REMARK   44  A    between atoms: _107  and  _109
REMARK   45  A    between atoms: _109  and  _110
REMARK   46  A    between atoms: _109  and  _112
REMARK   47  A    between atoms: _112  and  _113
REMARK   48  A    between atoms: _113  and  _114
REMARK   49  A    between atoms: _117  and  _118
REMARK   50  A    between atoms: _123  and  _125
REMARK   51  A    between atoms: _125  and  _126
REMARK   52  A    between atoms: _125  and  _128
REMARK   53  A    between atoms: _128  and  _129
REMARK   54  A    between atoms: _129  and  _130
REMARK   55  A    between atoms: _130  and  _131
REMARK   56  A    between atoms: _131  and  _132
REMARK   57  A    between atoms: _137  and  _138
REMARK   58  A    between atoms: _143  and  _145
REMARK   59  A    between atoms: _145  and  _146
REMARK   60  A    between atoms: _145  and  _148
REMARK   61  A    between atoms: _148  and  _149
REMARK   62  A    between atoms: _149  and  _150
REMARK   63  A    between atoms: _154  and  _155
REMARK   64  A    between atoms: _160  and  _162
REMARK   65  A    between atoms: _162  and  _163
REMARK   66  A    between atoms: _162  and  _165
REMARK   67  A    between atoms: _165  and  _166
REMARK   68  A    between atoms: _171  and  _172
REMARK   69  A    between atoms: _174  and  _176
REMARK   70  A    between atoms: _176  and  _177
REMARK   71  A    between atoms: _176  and  _179
REMARK   72  A    between atoms: _179  and  _180
REMARK   73  A    between atoms: _183  and  _185
REMARK   74  A    between atoms: _185  and  _186
REMARK   75  A    between atoms: _185  and  _188
REMARK   76  A    between atoms: _191  and  _193
REMARK   77  A    between atoms: _193  and  _194
REMARK   78  A    between atoms: _193  and  _196
REMARK   79  A    between atoms: _196  and  _197
REMARK   80  A    between atoms: _200  and  _202
REMARK   81  A    between atoms: _202  and  _203
REMARK   82  A    between atoms: _206  and  _208
REMARK   83  A    between atoms: _208  and  _209
REMARK   84  A    between atoms: _208  and  _211
REMARK   85  A    between atoms: _211  and  _212
REMARK   86  A    between atoms: _212  and  _213
REMARK   87  A    between atoms: _215  and  _217
REMARK   88  A    between atoms: _217  and  _218
REMARK   89  A    between atoms: _217  and  _220
REMARK   90  A    between atoms: _220  and  _221
REMARK   91  A    between atoms: _224  and  _226
REMARK   92  A    between atoms: _226  and  _227
REMARK   93  A    between atoms: _230  and  _232
REMARK   94  A    between atoms: _232  and  _233
REMARK   95  A    between atoms: _235  and  _237
REMARK   96  A    between atoms: _237  and  _238
REMARK   97  A    between atoms: _237  and  _240
REMARK   98  A    between atoms: _240  and  _241
REMARK   99  A    between atoms: _241  and  _242
REMARK  100  A    between atoms: _245  and  _247
REMARK  101  A    between atoms: _247  and  _248
REMARK  102  A    between atoms: _247  and  _250
REMARK  103  A    between atoms: _250  and  _251
REMARK  104  A    between atoms: _255  and  _256
REMARK  105  A    between atoms: _262  and  _263
REMARK  106  A    between atoms: _268  and  _270
REMARK  107  A    between atoms: _270  and  _271
REMARK  108  A    between atoms: _270  and  _273
REMARK  109  A    between atoms: _273  and  _274
REMARK  110  A    between atoms: _274  and  _275
REMARK  111  A    between atoms: _275  and  _276
REMARK  112  A    between atoms: _276  and  _277
REMARK                            x       y       z     vdW  Elec       q    Type
REMARK                         _______ _______ _______ _____ _____    ______ ____
ROOT
ATOM      1  N   PRO A   1      31.618  -1.388  35.497  0.00  0.00    -0.212 NA
ATOM      2  CD  PRO A   1      30.191  -1.763  35.430  0.00  0.00    +0.089 C 
ATOM      3  CG  PRO A   1      29.642  -0.870  34.340  0.00  0.00    +0.021 C 
ATOM      4  CB  PRO A   1      30.815  -0.531  33.466  0.00  0.00    +0.027 C 
ATOM      5  CA  PRO A   1      31.978  -0.429  34.446  0.00  0.00    +0.137 C 
ENDROOT
BRANCH   5   6
ATOM      6  C   PRO A   1      32.181   1.003  34.941  0.00  0.00    +0.224 C 
ATOM      7  O   PRO A   1      32.655   1.864  34.195  0.00  0.00    -0.287 OA
ENDBRANCH   5   6
TORSDOF 1
REMARK  Name = ../refined-set-2016/3jvr/3jvr_pocket.pdb
REMARK  112 active torsions:
REMARK  status: ('A' for Active; 'I' for Inactive)
REMARK    1  A    between atoms: _1  and  _3
REMARK    2  A    between atoms: _3  and  _4
REMARK    3  A    between atoms: _3  and  _6
REMARK    4  A    between atoms: _6  and  _7
REMARK    5  A    between atoms: _7  and  _8
REMARK    6  A    between atoms: _11  and  _13
REMARK    7  A    between atoms: _13  and  _14
REMARK    8  A    between atoms: _13  and  _16
REMARK    9  A    between atoms: _16  and  _17
REMARK   10  A    between atoms: _20  and  _22
REMARK   11  A    between atoms: _22  and  _23
REMARK   12  A    between atoms: _22  and  _25
REMARK   13  A    between atoms: _25  and  _26
REMARK   14  A    between atoms: _32  and  _34
REMARK   15  A    between atoms: _34  and  _35
REMARK   16  A    between atoms: _34  and  _37
REMARK   17  A    between atoms: _37  and  _38
REMARK   18  A    between atoms: _41  and  _43
REMARK   19  A    between atoms: _43  and  _44
REMARK   20  A    between atoms: _43  and  _46
REMARK   21  A    between atoms: _46  and  _47
REMARK   22  A    between atoms: _47  and  _48
REMARK   23  A    between atoms: _48  and  _49
REMARK   24  A    between atoms: _58  and  _60
REMARK   25  A    between atoms: _60  and  _61
REMARK   26  A    between atoms: _60  and  _63
REMARK   27  A    between atoms: _63  and  _64
REMARK   28  A    between atoms: _67  and  _69
REMARK   29  A    between atoms: _69  and  _70
REMARK   30  A    between atoms: _69  and  _72
REMARK   31  A    between atoms: _72  and  _73
REMARK   32  A    between atoms: _73  and  _74
REMARK   33  A    between atoms: _78  and  _79
REMARK   34  A    between atoms: _84  and  _86
REMARK   35  A    between atoms: _86  and  _87
REMARK   36  A    between atoms: _86  and  _89
REMARK   37  A    between atoms: _89  and  _90
REMARK   38  A    between atoms: _93  and  _95
REMARK   39  A    between atoms: _95  and  _96
REMARK   40  A    between atoms: _95  and  _98
REMARK   41  A    between atoms: _98  and  _99
REMARK   42  A    between atoms: _102  and  _104
REMARK   43  A    between atoms: _104  and  _105
REMARK   44  A    between atoms: _107  and  _109
REMARK   45  A    between atoms: _109  and  _110
REMARK   46  A    between atoms: _109  and  _112
REMARK   47  A    between atoms: _112  and  _113
REMARK   48  A    between atoms: _113  and  _114
REMARK   49  A    between atoms: _117  and  _118
REMARK   50  A    between atoms: _123  and  _125
REMARK   51  A    between atoms: _125  and  _126
REMARK   52  A    between atoms: _125  and  _128
REMARK   53  A    between atoms: _128  and  _129
REMARK   54  A    between atoms: _129  and  _130
REMARK   55  A    between atoms: _130  and  _131
REMARK   56  A    between atoms: _131  and  _132
REMARK   57  A    between atoms: _137  and  _138
REMARK   58  A    between atoms: _143  and  _145
REMARK   59  A    between atoms: _145  and  _146
REMARK   60  A    between atoms: _145  and  _148
REMARK   61  A    between atoms: _148  and  _149
REMARK   62  A    between atoms: _149  and  _150
REMARK   63  A    between atoms: _154  and  _155
REMARK   64  A    between atoms: _160  and  _162
REMARK   65  A    between atoms: _162  and  _163
REMARK   66  A    between atoms: _162  and  _165
REMARK   67  A    between atoms: _165  and  _166
REMARK   68  A    between atoms: _171  and  _172
REMARK   69  A    between atoms: _174  and  _176
REMARK   70  A    between atoms: _176  and  _177
REMARK   71  A    between atoms: _176  and  _179
REMARK   72  A    between atoms: _179  and  _180
REMARK   73  A    between atoms: _183  and  _185
REMARK   74  A    between atoms: _185  and  _186
REMARK   75  A    between atoms: _185  and  _188
REMARK   76  A    between atoms: _191  and  _193
REMARK   77  A    between atoms: _193  and  _194
REMARK   78  A    between atoms: _193  and  _196
REMARK   79  A    between atoms: _196  and  _197
REMARK   80  A    between atoms: _200  and  _202
REMARK   81  A    between atoms: _202  and  _203
REMARK   82  A    between atoms: _206  and  _208
REMARK   83  A    between atoms: _208  and  _209
REMARK   84  A    between atoms: _208  and  _211
REMARK   85  A    between atoms: _211  and  _212
REMARK   86  A    between atoms: _212  and  _213
REMARK   87  A    between atoms: _215  and  _217
REMARK   88  A    between atoms: _217  and  _218
REMARK   89  A    between atoms: _217  and  _220
REMARK   90  A    between atoms: _220  and  _221
REMARK   91  A    between atoms: _224  and  _226
REMARK   92  A    between atoms: _226  and  _227
REMARK   93  A    between atoms: _230  and  _232
REMARK   94  A    between atoms: _232  and  _233
REMARK   95  A    between atoms: _235  and  _237
REMARK   96  A    between atoms: _237  and  _238
REMARK   97  A    between atoms: _237  and  _240
REMARK   98  A    between atoms: _240  and  _241
REMARK   99  A    between atoms: _241  and  _242
REMARK  100  A    between atoms: _245  and  _247
REMARK  101  A    between atoms: _247  and  _248
REMARK  102  A    between atoms: _247  and  _250
REMARK  103  A    between atoms: _250  and  _251
REMARK  104  A    between atoms: _255  and  _256
REMARK  105  A    between atoms: _262  and  _263
REMARK  106  A    between atoms: _268  and  _270
REMARK  107  A    between atoms: _270  and  _271
REMARK  108  A    between atoms: _270  and  _273
REMARK  109  A    between atoms: _273  and  _274
REMARK  110  A    between atoms: _274  and  _275
REMARK  111  A    between atoms: _275  and  _276
REMARK  112  A    between atoms: _276  and  _277
REMARK                            x       y       z     vdW  Elec       q    Type
REMARK                         _______ _______ _______ _____ _____    ______ ____
ROOT
ATOM      1  CG  LYS A   1      36.093   1.568  32.399  0.00  0.00    -0.000 C 
ENDROOT
BRANCH   1   2
ATOM      2  CB  LYS A   1      35.244   2.807  32.199  0.00  0.00    +0.025 C 
BRANCH   2   3
ATOM      3  CA  LYS A   1      35.519   3.923  33.207  0.00  0.00    +0.133 C 
BRANCH   3   4
ATOM      4  N   LYS A   1      35.202   3.476  34.564  0.00  0.00    -0.239 NA
ATOM      5  H   LYS A   1      34.483   2.736  34.699  0.00  0.00    +0.142 HD
ENDBRANCH   3   4
BRANCH   3   6
ATOM      6  C   LYS A   1      34.712   5.156  32.814  0.00  0.00    +0.224 C 
ATOM      7  O   LYS A   1      34.934   5.744  31.755  0.00  0.00    -0.287 OA
ENDBRANCH   3   6
ENDBRANCH   2   3
ENDBRANCH   1   2
BRANCH   1   8
ATOM      8  CD  LYS A   1      35.932   0.588  31.251  0.00  0.00    -0.024 C 
BRANCH   8   9
ATOM      9  CE  LYS A   1      34.764  -0.348  31.478  0.00  0.00    -0.086 C 
BRANCH   9  10
ATOM     10  NZ  LYS A   1      34.750  -1.457  30.484  0.00  0.00    +0.380 N 
ATOM     11  HZ1 LYS A   1      33.937  -2.078  30.670  0.00  0.00    -0.089 HD
ATOM     12  HZ2 LYS A   1      35.631  -2.004  30.564  0.00  0.00    -0.089 HD
ATOM     13  HZ3 LYS A   1      34.673  -1.061  29.526  0.00  0.00    -0.089 HD
ENDBRANCH   9  10
ENDBRANCH   8   9
ENDBRANCH   1   8
TORSDOF 7
REMARK  Name = ../refined-set-2016/3jvr/3jvr_pocket.pdb
REMARK  112 active torsions:
REMARK  status: ('A' for Active; 'I' for Inactive)
REMARK    1  A    between atoms: _1  and  _3
REMARK    2  A    between atoms: _3  and  _4
REMARK    3  A    between atoms: _3  and  _6
REMARK    4  A    between atoms: _6  and  _7
REMARK    5  A    between atoms: _7  and  _8
REMARK    6  A    between atoms: _11  and  _13
REMARK    7  A    between atoms: _13  and  _14
REMARK    8  A    between atoms: _13  and  _16
REMARK    9  A    between atoms: _16  and  _17
REMARK   10  A    between atoms: _20  and  _22
REMARK   11  A    between atoms: _22  and  _23
REMARK   12  A    between atoms: _22  and  _25
REMARK   13  A    between atoms: _25  and  _26
REMARK   14  A    between atoms: _32  and  _34
REMARK   15  A    between atoms: _34  and  _35
REMARK   16  A    between atoms: _34  and  _37
REMARK   17  A    between atoms: _37  and  _38
REMARK   18  A    between atoms: _41  and  _43
REMARK   19  A    between atoms: _43  and  _44
REMARK   20  A    between atoms: _43  and  _46
REMARK   21  A    between atoms: _46  and  _47
REMARK   22  A    between atoms: _47  and  _48
REMARK   23  A    between atoms: _48  and  _49
REMARK   24  A    between atoms: _58  and  _60
REMARK   25  A    between atoms: _60  and  _61
REMARK   26  A    between atoms: _60  and  _63
REMARK   27  A    between atoms: _63  and  _64
REMARK   28  A    between atoms: _67  and  _69
REMARK   29  A    between atoms: _69  and  _70
REMARK   30  A    between atoms: _69  and  _72
REMARK   31  A    between atoms: _72  and  _73
REMARK   32  A    between atoms: _73  and  _74
REMARK   33  A    between atoms: _78  and  _79
REMARK   34  A    between atoms: _84  and  _86
REMARK   35  A    between atoms: _86  and  _87
REMARK   36  A    between atoms: _86  and  _89
REMARK   37  A    between atoms: _89  and  _90
REMARK   38  A    between atoms: _93  and  _95
REMARK   39  A    between atoms: _95  and  _96
REMARK   40  A    between atoms: _95  and  _98
REMARK   41  A    between atoms: _98  and  _99
REMARK   42  A    between atoms: _102  and  _104
REMARK   43  A    between atoms: _104  and  _105
REMARK   44  A    between atoms: _107  and  _109
REMARK   45  A    between atoms: _109  and  _110
REMARK   46  A    between atoms: _109  and  _112
REMARK   47  A    between atoms: _112  and  _113
REMARK   48  A    between atoms: _113  and  _114
REMARK   49  A    between atoms: _117  and  _118
REMARK   50  A    between atoms: _123  and  _125
REMARK   51  A    between atoms: _125  and  _126
REMARK   52  A    between atoms: _125  and  _128
REMARK   53  A    between atoms: _128  and  _129
REMARK   54  A    between atoms: _129  and  _130
REMARK   55  A    between atoms: _130  and  _131
REMARK   56  A    between atoms: _131  and  _132
REMARK   57  A    between atoms: _137  and  _138
REMARK   58  A    between atoms: _143  and  _145
REMARK   59  A    between atoms: _145  and  _146
REMARK   60  A    between atoms: _145  and  _148
REMARK   61  A    between atoms: _148  and  _149
REMARK   62  A    between atoms: _149  and  _150
REMARK   63  A    between atoms: _154  and  _155
REMARK   64  A    between atoms: _160  and  _162
REMARK   65  A    between atoms: _162  and  _163
REMARK   66  A    between atoms: _162  and  _165
REMARK   67  A    between atoms: _165  and  _166
REMARK   68  A    between atoms: _171  and  _172
REMARK   69  A    between atoms: _174  and  _176
REMARK   70  A    between atoms: _176  and  _177
REMARK   71  A    between atoms: _176  and  _179
REMARK   72  A    between atoms: _179  and  _180
REMARK   73  A    between atoms: _183  and  _185
REMARK   74  A    between atoms: _185  and  _186
REMARK   75  A    between atoms: _185  and  _188
REMARK   76  A    between atoms: _191  and  _193
REMARK   77  A    between atoms: _193  and  _194
REMARK   78  A    between atoms: _193  and  _196
REMARK   79  A    between atoms: _196  and  _197
REMARK   80  A    between atoms: _200  and  _202
REMARK   81  A    between atoms: _202  and  _203
REMARK   82  A    between atoms: _206  and  _208
REMARK   83  A    between atoms: _208  and  _209
REMARK   84  A    between atoms: _208  and  _211
REMARK   85  A    between atoms: _211  and  _212
REMARK   86  A    between atoms: _212  and  _213
REMARK   87  A    between atoms: _215  and  _217
REMARK   88  A    between atoms: _217  and  _218
REMARK   89  A    between atoms: _217  and  _220
REMARK   90  A    between atoms: _220  and  _221
REMARK   91  A    between atoms: _224  and  _226
REMARK   92  A    between atoms: _226  and  _227
REMARK   93  A    between atoms: _230  and  _232
REMARK   94  A    between atoms: _232  and  _233
REMARK   95  A    between atoms: _235  and  _237
REMARK   96  A    between atoms: _237  and  _238
REMARK   97  A    between atoms: _237  and  _240
REMARK   98  A    between atoms: _240  and  _241
REMARK   99  A    between atoms: _241  and  _242
REMARK  100  A    between atoms: _245  and  _247
REMARK  101  A    between atoms: _247  and  _248
REMARK  102  A    between atoms: _247  and  _250
REMARK  103  A    between atoms: _250  and  _251
REMARK  104  A    between atoms: _255  and  _256
REMARK  105  A    between atoms: _262  and  _263
REMARK  106  A    between atoms: _268  and  _270
REMARK  107  A    between atoms: _270  and  _271
REMARK  108  A    between atoms: _270  and  _273
REMARK  109  A    between atoms: _273  and  _274
REMARK  110  A    between atoms: _274  and  _275
REMARK  111  A    between atoms: _275  and  _276
REMARK  112  A    between atoms: _276  and  _277
REMARK                            x       y       z     vdW  Elec       q    Type
REMARK                         _______ _______ _______ _____ _____    ______ ____
ROOT
ATOM      1  O   HOH     1      28.789  -6.538  28.509  0.00  0.00    +0.000 OA
ENDROOT
TORSDOF 0
REMARK  Name = ../refined-set-2016/3jvr/3jvr_pocket.pdb
REMARK  112 active torsions:
REMARK  status: ('A' for Active; 'I' for Inactive)
REMARK    1  A    between atoms: _1  and  _3
REMARK    2  A    between atoms: _3  and  _4
REMARK    3  A    between atoms: _3  and  _6
REMARK    4  A    between atoms: _6  and  _7
REMARK    5  A    between atoms: _7  and  _8
REMARK    6  A    between atoms: _11  and  _13
REMARK    7  A    between atoms: _13  and  _14
REMARK    8  A    between atoms: _13  and  _16
REMARK    9  A    between atoms: _16  and  _17
REMARK   10  A    between atoms: _20  and  _22
REMARK   11  A    between atoms: _22  and  _23
REMARK   12  A    between atoms: _22  and  _25
REMARK   13  A    between atoms: _25  and  _26
REMARK   14  A    between atoms: _32  and  _34
REMARK   15  A    between atoms: _34  and  _35
REMARK   16  A    between atoms: _34  and  _37
REMARK   17  A    between atoms: _37  and  _38
REMARK   18  A    between atoms: _41  and  _43
REMARK   19  A    between atoms: _43  and  _44
REMARK   20  A    between atoms: _43  and  _46
REMARK   21  A    between atoms: _46  and  _47
REMARK   22  A    between atoms: _47  and  _48
REMARK   23  A    between atoms: _48  and  _49
REMARK   24  A    between atoms: _58  and  _60
REMARK   25  A    between atoms: _60  and  _61
REMARK   26  A    between atoms: _60  and  _63
REMARK   27  A    between atoms: _63  and  _64
REMARK   28  A    between atoms: _67  and  _69
REMARK   29  A    between atoms: _69  and  _70
REMARK   30  A    between atoms: _69  and  _72
REMARK   31  A    between atoms: _72  and  _73
REMARK   32  A    between atoms: _73  and  _74
REMARK   33  A    between atoms: _78  and  _79
REMARK   34  A    between atoms: _84  and  _86
REMARK   35  A    between atoms: _86  and  _87
REMARK   36  A    between atoms: _86  and  _89
REMARK   37  A    between atoms: _89  and  _90
REMARK   38  A    between atoms: _93  and  _95
REMARK   39  A    between atoms: _95  and  _96
REMARK   40  A    between atoms: _95  and  _98
REMARK   41  A    between atoms: _98  and  _99
REMARK   42  A    between atoms: _102  and  _104
REMARK   43  A    between atoms: _104  and  _105
REMARK   44  A    between atoms: _107  and  _109
REMARK   45  A    between atoms: _109  and  _110
REMARK   46  A    between atoms: _109  and  _112
REMARK   47  A    between atoms: _112  and  _113
REMARK   48  A    between atoms: _113  and  _114
REMARK   49  A    between atoms: _117  and  _118
REMARK   50  A    between atoms: _123  and  _125
REMARK   51  A    between atoms: _125  and  _126
REMARK   52  A    between atoms: _125  and  _128
REMARK   53  A    between atoms: _128  and  _129
REMARK   54  A    between atoms: _129  and  _130
REMARK   55  A    between atoms: _130  and  _131
REMARK   56  A    between atoms: _131  and  _132
REMARK   57  A    between atoms: _137  and  _138
REMARK   58  A    between atoms: _143  and  _145
REMARK   59  A    between atoms: _145  and  _146
REMARK   60  A    between atoms: _145  and  _148
REMARK   61  A    between atoms: _148  and  _149
REMARK   62  A    between atoms: _149  and  _150
REMARK   63  A    between atoms: _154  and  _155
REMARK   64  A    between atoms: _160  and  _162
REMARK   65  A    between atoms: _162  and  _163
REMARK   66  A    between atoms: _162  and  _165
REMARK   67  A    between atoms: _165  and  _166
REMARK   68  A    between atoms: _171  and  _172
REMARK   69  A    between atoms: _174  and  _176
REMARK   70  A    between atoms: _176  and  _177
REMARK   71  A    between atoms: _176  and  _179
REMARK   72  A    between atoms: _179  and  _180
REMARK   73  A    between atoms: _183  and  _185
REMARK   74  A    between atoms: _185  and  _186
REMARK   75  A    between atoms: _185  and  _188
REMARK   76  A    between atoms: _191  and  _193
REMARK   77  A    between atoms: _193  and  _194
REMARK   78  A    between atoms: _193  and  _196
REMARK   79  A    between atoms: _196  and  _197
REMARK   80  A    between atoms: _200  and  _202
REMARK   81  A    between atoms: _202  and  _203
REMARK   82  A    between atoms: _206  and  _208
REMARK   83  A    between atoms: _208  and  _209
REMARK   84  A    between atoms: _208  and  _211
REMARK   85  A    between atoms: _211  and  _212
REMARK   86  A    between atoms: _212  and  _213
REMARK   87  A    between atoms: _215  and  _217
REMARK   88  A    between atoms: _217  and  _218
REMARK   89  A    between atoms: _217  and  _220
REMARK   90  A    between atoms: _220  and  _221
REMARK   91  A    between atoms: _224  and  _226
REMARK   92  A    between atoms: _226  and  _227
REMARK   93  A    between atoms: _230  and  _232
REMARK   94  A    between atoms: _232  and  _233
REMARK   95  A    between atoms: _235  and  _237
REMARK   96  A    between atoms: _237  and  _238
REMARK   97  A    between atoms: _237  and  _240
REMARK   98  A    between atoms: _240  and  _241
REMARK   99  A    between atoms: _241  and  _242
REMARK  100  A    between atoms: _245  and  _247
REMARK  101  A    between atoms: _247  and  _248
REMARK  102  A    between atoms: _247  and  _250
REMARK  103  A    between atoms: _250  and  _251
REMARK  104  A    between atoms: _255  and  _256
REMARK  105  A    between atoms: _262  and  _263
REMARK  106  A    between atoms: _268  and  _270
REMARK  107  A    between atoms: _270  and  _271
REMARK  108  A    between atoms: _270  and  _273
REMARK  109  A    between atoms: _273  and  _274
REMARK  110  A    between atoms: _274  and  _275
REMARK  111  A    between atoms: _275  and  _276
REMARK  112  A    between atoms: _276  and  _277
REMARK                            x       y       z     vdW  Elec       q    Type
REMARK                         _______ _______ _______ _____ _____    ______ ____
ROOT
ATOM      1  O   HOH     1      25.657   0.888  13.053  0.00  0.00    +0.000 OA
ENDROOT
TORSDOF 0
REMARK  Name = ../refined-set-2016/3jvr/3jvr_pocket.pdb
REMARK  112 active torsions:
REMARK  status: ('A' for Active; 'I' for Inactive)
REMARK    1  A    between atoms: _1  and  _3
REMARK    2  A    between atoms: _3  and  _4
REMARK    3  A    between atoms: _3  and  _6
REMARK    4  A    between atoms: _6  and  _7
REMARK    5  A    between atoms: _7  and  _8
REMARK    6  A    between atoms: _11  and  _13
REMARK    7  A    between atoms: _13  and  _14
REMARK    8  A    between atoms: _13  and  _16
REMARK    9  A    between atoms: _16  and  _17
REMARK   10  A    between atoms: _20  and  _22
REMARK   11  A    between atoms: _22  and  _23
REMARK   12  A    between atoms: _22  and  _25
REMARK   13  A    between atoms: _25  and  _26
REMARK   14  A    between atoms: _32  and  _34
REMARK   15  A    between atoms: _34  and  _35
REMARK   16  A    between atoms: _34  and  _37
REMARK   17  A    between atoms: _37  and  _38
REMARK   18  A    between atoms: _41  and  _43
REMARK   19  A    between atoms: _43  and  _44
REMARK   20  A    between atoms: _43  and  _46
REMARK   21  A    between atoms: _46  and  _47
REMARK   22  A    between atoms: _47  and  _48
REMARK   23  A    between atoms: _48  and  _49
REMARK   24  A    between atoms: _58  and  _60
REMARK   25  A    between atoms: _60  and  _61
REMARK   26  A    between atoms: _60  and  _63
REMARK   27  A    between atoms: _63  and  _64
REMARK   28  A    between atoms: _67  and  _69
REMARK   29  A    between atoms: _69  and  _70
REMARK   30  A    between atoms: _69  and  _72
REMARK   31  A    between atoms: _72  and  _73
REMARK   32  A    between atoms: _73  and  _74
REMARK   33  A    between atoms: _78  and  _79
REMARK   34  A    between atoms: _84  and  _86
REMARK   35  A    between atoms: _86  and  _87
REMARK   36  A    between atoms: _86  and  _89
REMARK   37  A    between atoms: _89  and  _90
REMARK   38  A    between atoms: _93  and  _95
REMARK   39  A    between atoms: _95  and  _96
REMARK   40  A    between atoms: _95  and  _98
REMARK   41  A    between atoms: _98  and  _99
REMARK   42  A    between atoms: _102  and  _104
REMARK   43  A    between atoms: _104  and  _105
REMARK   44  A    between atoms: _107  and  _109
REMARK   45  A    between atoms: _109  and  _110
REMARK   46  A    between atoms: _109  and  _112
REMARK   47  A    between atoms: _112  and  _113
REMARK   48  A    between atoms: _113  and  _114
REMARK   49  A    between atoms: _117  and  _118
REMARK   50  A    between atoms: _123  and  _125
REMARK   51  A    between atoms: _125  and  _126
REMARK   52  A    between atoms: _125  and  _128
REMARK   53  A    between atoms: _128  and  _129
REMARK   54  A    between atoms: _129  and  _130
REMARK   55  A    between atoms: _130  and  _131
REMARK   56  A    between atoms: _131  and  _132
REMARK   57  A    between atoms: _137  and  _138
REMARK   58  A    between atoms: _143  and  _145
REMARK   59  A    between atoms: _145  and  _146
REMARK   60  A    between atoms: _145  and  _148
REMARK   61  A    between atoms: _148  and  _149
REMARK   62  A    between atoms: _149  and  _150
REMARK   63  A    between atoms: _154  and  _155
REMARK   64  A    between atoms: _160  and  _162
REMARK   65  A    between atoms: _162  and  _163
REMARK   66  A    between atoms: _162  and  _165
REMARK   67  A    between atoms: _165  and  _166
REMARK   68  A    between atoms: _171  and  _172
REMARK   69  A    between atoms: _174  and  _176
REMARK   70  A    between atoms: _176  and  _177
REMARK   71  A    between atoms: _176  and  _179
REMARK   72  A    between atoms: _179  and  _180
REMARK   73  A    between atoms: _183  and  _185
REMARK   74  A    between atoms: _185  and  _186
REMARK   75  A    between atoms: _185  and  _188
REMARK   76  A    between atoms: _191  and  _193
REMARK   77  A    between atoms: _193  and  _194
REMARK   78  A    between atoms: _193  and  _196
REMARK   79  A    between atoms: _196  and  _197
REMARK   80  A    between atoms: _200  and  _202
REMARK   81  A    between atoms: _202  and  _203
REMARK   82  A    between atoms: _206  and  _208
REMARK   83  A    between atoms: _208  and  _209
REMARK   84  A    between atoms: _208  and  _211
REMARK   85  A    between atoms: _211  and  _212
REMARK   86  A    between atoms: _212  and  _213
REMARK   87  A    between atoms: _215  and  _217
REMARK   88  A    between atoms: _217  and  _218
REMARK   89  A    between atoms: _217  and  _220
REMARK   90  A    between atoms: _220  and  _221
REMARK   91  A    between atoms: _224  and  _226
REMARK   92  A    between atoms: _226  and  _227
REMARK   93  A    between atoms: _230  and  _232
REMARK   94  A    between atoms: _232  and  _233
REMARK   95  A    between atoms: _235  and  _237
REMARK   96  A    between atoms: _237  and  _238
REMARK   97  A    between atoms: _237  and  _240
REMARK   98  A    between atoms: _240  and  _241
REMARK   99  A    between atoms: _241  and  _242
REMARK  100  A    between atoms: _245  and  _247
REMARK  101  A    between atoms: _247  and  _248
REMARK  102  A    between atoms: _247  and  _250
REMARK  103  A    between atoms: _250  and  _251
REMARK  104  A    between atoms: _255  and  _256
REMARK  105  A    between atoms: _262  and  _263
REMARK  106  A    between atoms: _268  and  _270
REMARK  107  A    between atoms: _270  and  _271
REMARK  108  A    between atoms: _270  and  _273
REMARK  109  A    between atoms: _273  and  _274
REMARK  110  A    between atoms: _274  and  _275
REMARK  111  A    between atoms: _275  and  _276
REMARK  112  A    between atoms: _276  and  _277
REMARK                            x       y       z     vdW  Elec       q    Type
REMARK                         _______ _______ _______ _____ _____    ______ ____
ROOT
ATOM      1  O   HOH     1      25.206  -9.531  29.570  0.00  0.00    +0.000 OA
ENDROOT
TORSDOF 0
REMARK  Name = ../refined-set-2016/3jvr/3jvr_pocket.pdb
REMARK  112 active torsions:
REMARK  status: ('A' for Active; 'I' for Inactive)
REMARK    1  A    between atoms: _1  and  _3
REMARK    2  A    between atoms: _3  and  _4
REMARK    3  A    between atoms: _3  and  _6
REMARK    4  A    between atoms: _6  and  _7
REMARK    5  A    between atoms: _7  and  _8
REMARK    6  A    between atoms: _11  and  _13
REMARK    7  A    between atoms: _13  and  _14
REMARK    8  A    between atoms: _13  and  _16
REMARK    9  A    between atoms: _16  and  _17
REMARK   10  A    between atoms: _20  and  _22
REMARK   11  A    between atoms: _22  and  _23
REMARK   12  A    between atoms: _22  and  _25
REMARK   13  A    between atoms: _25  and  _26
REMARK   14  A    between atoms: _32  and  _34
REMARK   15  A    between atoms: _34  and  _35
REMARK   16  A    between atoms: _34  and  _37
REMARK   17  A    between atoms: _37  and  _38
REMARK   18  A    between atoms: _41  and  _43
REMARK   19  A    between atoms: _43  and  _44
REMARK   20  A    between atoms: _43  and  _46
REMARK   21  A    between atoms: _46  and  _47
REMARK   22  A    between atoms: _47  and  _48
REMARK   23  A    between atoms: _48  and  _49
REMARK   24  A    between atoms: _58  and  _60
REMARK   25  A    between atoms: _60  and  _61
REMARK   26  A    between atoms: _60  and  _63
REMARK   27  A    between atoms: _63  and  _64
REMARK   28  A    between atoms: _67  and  _69
REMARK   29  A    between atoms: _69  and  _70
REMARK   30  A    between atoms: _69  and  _72
REMARK   31  A    between atoms: _72  and  _73
REMARK   32  A    between atoms: _73  and  _74
REMARK   33  A    between atoms: _78  and  _79
REMARK   34  A    between atoms: _84  and  _86
REMARK   35  A    between atoms: _86  and  _87
REMARK   36  A    between atoms: _86  and  _89
REMARK   37  A    between atoms: _89  and  _90
REMARK   38  A    between atoms: _93  and  _95
REMARK   39  A    between atoms: _95  and  _96
REMARK   40  A    between atoms: _95  and  _98
REMARK   41  A    between atoms: _98  and  _99
REMARK   42  A    between atoms: _102  and  _104
REMARK   43  A    between atoms: _104  and  _105
REMARK   44  A    between atoms: _107  and  _109
REMARK   45  A    between atoms: _109  and  _110
REMARK   46  A    between atoms: _109  and  _112
REMARK   47  A    between atoms: _112  and  _113
REMARK   48  A    between atoms: _113  and  _114
REMARK   49  A    between atoms: _117  and  _118
REMARK   50  A    between atoms: _123  and  _125
REMARK   51  A    between atoms: _125  and  _126
REMARK   52  A    between atoms: _125  and  _128
REMARK   53  A    between atoms: _128  and  _129
REMARK   54  A    between atoms: _129  and  _130
REMARK   55  A    between atoms: _130  and  _131
REMARK   56  A    between atoms: _131  and  _132
REMARK   57  A    between atoms: _137  and  _138
REMARK   58  A    between atoms: _143  and  _145
REMARK   59  A    between atoms: _145  and  _146
REMARK   60  A    between atoms: _145  and  _148
REMARK   61  A    between atoms: _148  and  _149
REMARK   62  A    between atoms: _149  and  _150
REMARK   63  A    between atoms: _154  and  _155
REMARK   64  A    between atoms: _160  and  _162
REMARK   65  A    between atoms: _162  and  _163
REMARK   66  A    between atoms: _162  and  _165
REMARK   67  A    between atoms: _165  and  _166
REMARK   68  A    between atoms: _171  and  _172
REMARK   69  A    between atoms: _174  and  _176
REMARK   70  A    between atoms: _176  and  _177
REMARK   71  A    between atoms: _176  and  _179
REMARK   72  A    between atoms: _179  and  _180
REMARK   73  A    between atoms: _183  and  _185
REMARK   74  A    between atoms: _185  and  _186
REMARK   75  A    between atoms: _185  and  _188
REMARK   76  A    between atoms: _191  and  _193
REMARK   77  A    between atoms: _193  and  _194
REMARK   78  A    between atoms: _193  and  _196
REMARK   79  A    between atoms: _196  and  _197
REMARK   80  A    between atoms: _200  and  _202
REMARK   81  A    between atoms: _202  and  _203
REMARK   82  A    between atoms: _206  and  _208
REMARK   83  A    between atoms: _208  and  _209
REMARK   84  A    between atoms: _208  and  _211
REMARK   85  A    between atoms: _211  and  _212
REMARK   86  A    between atoms: _212  and  _213
REMARK   87  A    between atoms: _215  and  _217
REMARK   88  A    between atoms: _217  and  _218
REMARK   89  A    between atoms: _217  and  _220
REMARK   90  A    between atoms: _220  and  _221
REMARK   91  A    between atoms: _224  and  _226
REMARK   92  A    between atoms: _226  and  _227
REMARK   93  A    between atoms: _230  and  _232
REMARK   94  A    between atoms: _232  and  _233
REMARK   95  A    between atoms: _235  and  _237
REMARK   96  A    between atoms: _237  and  _238
REMARK   97  A    between atoms: _237  and  _240
REMARK   98  A    between atoms: _240  and  _241
REMARK   99  A    between atoms: _241  and  _242
REMARK  100  A    between atoms: _245  and  _247
REMARK  101  A    between atoms: _247  and  _248
REMARK  102  A    between atoms: _247  and  _250
REMARK  103  A    between atoms: _250  and  _251
REMARK  104  A    between atoms: _255  and  _256
REMARK  105  A    between atoms: _262  and  _263
REMARK  106  A    between atoms: _268  and  _270
REMARK  107  A    between atoms: _270  and  _271
REMARK  108  A    between atoms: _270  and  _273
REMARK  109  A    between atoms: _273  and  _274
REMARK  110  A    between atoms: _274  and  _275
REMARK  111  A    between atoms: _275  and  _276
REMARK  112  A    between atoms: _276  and  _277
REMARK                            x       y       z     vdW  Elec       q    Type
REMARK                         _______ _______ _______ _____ _____    ______ ____
ROOT
ATOM      1  O   HOH     1      31.840   3.688  16.967  0.00  0.00    +0.000 OA
ENDROOT
TORSDOF 0
REMARK  Name = ../refined-set-2016/3jvr/3jvr_pocket.pdb
REMARK  112 active torsions:
REMARK  status: ('A' for Active; 'I' for Inactive)
REMARK    1  A    between atoms: _1  and  _3
REMARK    2  A    between atoms: _3  and  _4
REMARK    3  A    between atoms: _3  and  _6
REMARK    4  A    between atoms: _6  and  _7
REMARK    5  A    between atoms: _7  and  _8
REMARK    6  A    between atoms: _11  and  _13
REMARK    7  A    between atoms: _13  and  _14
REMARK    8  A    between atoms: _13  and  _16
REMARK    9  A    between atoms: _16  and  _17
REMARK   10  A    between atoms: _20  and  _22
REMARK   11  A    between atoms: _22  and  _23
REMARK   12  A    between atoms: _22  and  _25
REMARK   13  A    between atoms: _25  and  _26
REMARK   14  A    between atoms: _32  and  _34
REMARK   15  A    between atoms: _34  and  _35
REMARK   16  A    between atoms: _34  and  _37
REMARK   17  A    between atoms: _37  and  _38
REMARK   18  A    between atoms: _41  and  _43
REMARK   19  A    between atoms: _43  and  _44
REMARK   20  A    between atoms: _43  and  _46
REMARK   21  A    between atoms: _46  and  _47
REMARK   22  A    between atoms: _47  and  _48
REMARK   23  A    between atoms: _48  and  _49
REMARK   24  A    between atoms: _58  and  _60
REMARK   25  A    between atoms: _60  and  _61
REMARK   26  A    between atoms: _60  and  _63
REMARK   27  A    between atoms: _63  and  _64
REMARK   28  A    between atoms: _67  and  _69
REMARK   29  A    between atoms: _69  and  _70
REMARK   30  A    between atoms: _69  and  _72
REMARK   31  A    between atoms: _72  and  _73
REMARK   32  A    between atoms: _73  and  _74
REMARK   33  A    between atoms: _78  and  _79
REMARK   34  A    between atoms: _84  and  _86
REMARK   35  A    between atoms: _86  and  _87
REMARK   36  A    between atoms: _86  and  _89
REMARK   37  A    between atoms: _89  and  _90
REMARK   38  A    between atoms: _93  and  _95
REMARK   39  A    between atoms: _95  and  _96
REMARK   40  A    between atoms: _95  and  _98
REMARK   41  A    between atoms: _98  and  _99
REMARK   42  A    between atoms: _102  and  _104
REMARK   43  A    between atoms: _104  and  _105
REMARK   44  A    between atoms: _107  and  _109
REMARK   45  A    between atoms: _109  and  _110
REMARK   46  A    between atoms: _109  and  _112
REMARK   47  A    between atoms: _112  and  _113
REMARK   48  A    between atoms: _113  and  _114
REMARK   49  A    between atoms: _117  and  _118
REMARK   50  A    between atoms: _123  and  _125
REMARK   51  A    between atoms: _125  and  _126
REMARK   52  A    between atoms: _125  and  _128
REMARK   53  A    between atoms: _128  and  _129
REMARK   54  A    between atoms: _129  and  _130
REMARK   55  A    between atoms: _130  and  _131
REMARK   56  A    between atoms: _131  and  _132
REMARK   57  A    between atoms: _137  and  _138
REMARK   58  A    between atoms: _143  and  _145
REMARK   59  A    between atoms: _145  and  _146
REMARK   60  A    between atoms: _145  and  _148
REMARK   61  A    between atoms: _148  and  _149
REMARK   62  A    between atoms: _149  and  _150
REMARK   63  A    between atoms: _154  and  _155
REMARK   64  A    between atoms: _160  and  _162
REMARK   65  A    between atoms: _162  and  _163
REMARK   66  A    between atoms: _162  and  _165
REMARK   67  A    between atoms: _165  and  _166
REMARK   68  A    between atoms: _171  and  _172
REMARK   69  A    between atoms: _174  and  _176
REMARK   70  A    between atoms: _176  and  _177
REMARK   71  A    between atoms: _176  and  _179
REMARK   72  A    between atoms: _179  and  _180
REMARK   73  A    between atoms: _183  and  _185
REMARK   74  A    between atoms: _185  and  _186
REMARK   75  A    between atoms: _185  and  _188
REMARK   76  A    between atoms: _191  and  _193
REMARK   77  A    between atoms: _193  and  _194
REMARK   78  A    between atoms: _193  and  _196
REMARK   79  A    between atoms: _196  and  _197
REMARK   80  A    between atoms: _200  and  _202
REMARK   81  A    between atoms: _202  and  _203
REMARK   82  A    between atoms: _206  and  _208
REMARK   83  A    between atoms: _208  and  _209
REMARK   84  A    between atoms: _208  and  _211
REMARK   85  A    between atoms: _211  and  _212
REMARK   86  A    between atoms: _212  and  _213
REMARK   87  A    between atoms: _215  and  _217
REMARK   88  A    between atoms: _217  and  _218
REMARK   89  A    between atoms: _217  and  _220
REMARK   90  A    between atoms: _220  and  _221
REMARK   91  A    between atoms: _224  and  _226
REMARK   92  A    between atoms: _226  and  _227
REMARK   93  A    between atoms: _230  and  _232
REMARK   94  A    between atoms: _232  and  _233
REMARK   95  A    between atoms: _235  and  _237
REMARK   96  A    between atoms: _237  and  _238
REMARK   97  A    between atoms: _237  and  _240
REMARK   98  A    between atoms: _240  and  _241
REMARK   99  A    between atoms: _241  and  _242
REMARK  100  A    between atoms: _245  and  _247
REMARK  101  A    between atoms: _247  and  _248
REMARK  102  A    between atoms: _247  and  _250
REMARK  103  A    between atoms: _250  and  _251
REMARK  104  A    between atoms: _255  and  _256
REMARK  105  A    between atoms: _262  and  _263
REMARK  106  A    between atoms: _268  and  _270
REMARK  107  A    between atoms: _270  and  _271
REMARK  108  A    between atoms: _270  and  _273
REMARK  109  A    between atoms: _273  and  _274
REMARK  110  A    between atoms: _274  and  _275
REMARK  111  A    between atoms: _275  and  _276
REMARK  112  A    between atoms: _276  and  _277
REMARK                            x       y       z     vdW  Elec       q    Type
REMARK                         _______ _______ _______ _____ _____    ______ ____
ROOT
ATOM      1  O   HOH     1      22.489  -5.762  24.197  0.00  0.00    +0.000 OA
ENDROOT
TORSDOF 0
REMARK  Name = ../refined-set-2016/3jvr/3jvr_pocket.pdb
REMARK  112 active torsions:
REMARK  status: ('A' for Active; 'I' for Inactive)
REMARK    1  A    between atoms: _1  and  _3
REMARK    2  A    between atoms: _3  and  _4
REMARK    3  A    between atoms: _3  and  _6
REMARK    4  A    between atoms: _6  and  _7
REMARK    5  A    between atoms: _7  and  _8
REMARK    6  A    between atoms: _11  and  _13
REMARK    7  A    between atoms: _13  and  _14
REMARK    8  A    between atoms: _13  and  _16
REMARK    9  A    between atoms: _16  and  _17
REMARK   10  A    between atoms: _20  and  _22
REMARK   11  A    between atoms: _22  and  _23
REMARK   12  A    between atoms: _22  and  _25
REMARK   13  A    between atoms: _25  and  _26
REMARK   14  A    between atoms: _32  and  _34
REMARK   15  A    between atoms: _34  and  _35
REMARK   16  A    between atoms: _34  and  _37
REMARK   17  A    between atoms: _37  and  _38
REMARK   18  A    between atoms: _41  and  _43
REMARK   19  A    between atoms: _43  and  _44
REMARK   20  A    between atoms: _43  and  _46
REMARK   21  A    between atoms: _46  and  _47
REMARK   22  A    between atoms: _47  and  _48
REMARK   23  A    between atoms: _48  and  _49
REMARK   24  A    between atoms: _58  and  _60
REMARK   25  A    between atoms: _60  and  _61
REMARK   26  A    between atoms: _60  and  _63
REMARK   27  A    between atoms: _63  and  _64
REMARK   28  A    between atoms: _67  and  _69
REMARK   29  A    between atoms: _69  and  _70
REMARK   30  A    between atoms: _69  and  _72
REMARK   31  A    between atoms: _72  and  _73
REMARK   32  A    between atoms: _73  and  _74
REMARK   33  A    between atoms: _78  and  _79
REMARK   34  A    between atoms: _84  and  _86
REMARK   35  A    between atoms: _86  and  _87
REMARK   36  A    between atoms: _86  and  _89
REMARK   37  A    between atoms: _89  and  _90
REMARK   38  A    between atoms: _93  and  _95
REMARK   39  A    between atoms: _95  and  _96
REMARK   40  A    between atoms: _95  and  _98
REMARK   41  A    between atoms: _98  and  _99
REMARK   42  A    between atoms: _102  and  _104
REMARK   43  A    between atoms: _104  and  _105
REMARK   44  A    between atoms: _107  and  _109
REMARK   45  A    between atoms: _109  and  _110
REMARK   46  A    between atoms: _109  and  _112
REMARK   47  A    between atoms: _112  and  _113
REMARK   48  A    between atoms: _113  and  _114
REMARK   49  A    between atoms: _117  and  _118
REMARK   50  A    between atoms: _123  and  _125
REMARK   51  A    between atoms: _125  and  _126
REMARK   52  A    between atoms: _125  and  _128
REMARK   53  A    between atoms: _128  and  _129
REMARK   54  A    between atoms: _129  and  _130
REMARK   55  A    between atoms: _130  and  _131
REMARK   56  A    between atoms: _131  and  _132
REMARK   57  A    between atoms: _137  and  _138
REMARK   58  A    between atoms: _143  and  _145
REMARK   59  A    between atoms: _145  and  _146
REMARK   60  A    between atoms: _145  and  _148
REMARK   61  A    between atoms: _148  and  _149
REMARK   62  A    between atoms: _149  and  _150
REMARK   63  A    between atoms: _154  and  _155
REMARK   64  A    between atoms: _160  and  _162
REMARK   65  A    between atoms: _162  and  _163
REMARK   66  A    between atoms: _162  and  _165
REMARK   67  A    between atoms: _165  and  _166
REMARK   68  A    between atoms: _171  and  _172
REMARK   69  A    between atoms: _174  and  _176
REMARK   70  A    between atoms: _176  and  _177
REMARK   71  A    between atoms: _176  and  _179
REMARK   72  A    between atoms: _179  and  _180
REMARK   73  A    between atoms: _183  and  _185
REMARK   74  A    between atoms: _185  and  _186
REMARK   75  A    between atoms: _185  and  _188
REMARK   76  A    between atoms: _191  and  _193
REMARK   77  A    between atoms: _193  and  _194
REMARK   78  A    between atoms: _193  and  _196
REMARK   79  A    between atoms: _196  and  _197
REMARK   80  A    between atoms: _200  and  _202
REMARK   81  A    between atoms: _202  and  _203
REMARK   82  A    between atoms: _206  and  _208
REMARK   83  A    between atoms: _208  and  _209
REMARK   84  A    between atoms: _208  and  _211
REMARK   85  A    between atoms: _211  and  _212
REMARK   86  A    between atoms: _212  and  _213
REMARK   87  A    between atoms: _215  and  _217
REMARK   88  A    between atoms: _217  and  _218
REMARK   89  A    between atoms: _217  and  _220
REMARK   90  A    between atoms: _220  and  _221
REMARK   91  A    between atoms: _224  and  _226
REMARK   92  A    between atoms: _226  and  _227
REMARK   93  A    between atoms: _230  and  _232
REMARK   94  A    between atoms: _232  and  _233
REMARK   95  A    between atoms: _235  and  _237
REMARK   96  A    between atoms: _237  and  _238
REMARK   97  A    between atoms: _237  and  _240
REMARK   98  A    between atoms: _240  and  _241
REMARK   99  A    between atoms: _241  and  _242
REMARK  100  A    between atoms: _245  and  _247
REMARK  101  A    between atoms: _247  and  _248
REMARK  102  A    between atoms: _247  and  _250
REMARK  103  A    between atoms: _250  and  _251
REMARK  104  A    between atoms: _255  and  _256
REMARK  105  A    between atoms: _262  and  _263
REMARK  106  A    between atoms: _268  and  _270
REMARK  107  A    between atoms: _270  and  _271
REMARK  108  A    between atoms: _270  and  _273
REMARK  109  A    between atoms: _273  and  _274
REMARK  110  A    between atoms: _274  and  _275
REMARK  111  A    between atoms: _275  and  _276
REMARK  112  A    between atoms: _276  and  _277
REMARK                            x       y       z     vdW  Elec       q    Type
REMARK                         _______ _______ _______ _____ _____    ______ ____
ROOT
ATOM      1  O   HOH     1      31.319   6.959  17.737  0.00  0.00    +0.000 OA
ENDROOT
TORSDOF 0
REMARK  Name = ../refined-set-2016/3jvr/3jvr_pocket.pdb
REMARK  112 active torsions:
REMARK  status: ('A' for Active; 'I' for Inactive)
REMARK    1  A    between atoms: _1  and  _3
REMARK    2  A    between atoms: _3  and  _4
REMARK    3  A    between atoms: _3  and  _6
REMARK    4  A    between atoms: _6  and  _7
REMARK    5  A    between atoms: _7  and  _8
REMARK    6  A    between atoms: _11  and  _13
REMARK    7  A    between atoms: _13  and  _14
REMARK    8  A    between atoms: _13  and  _16
REMARK    9  A    between atoms: _16  and  _17
REMARK   10  A    between atoms: _20  and  _22
REMARK   11  A    between atoms: _22  and  _23
REMARK   12  A    between atoms: _22  and  _25
REMARK   13  A    between atoms: _25  and  _26
REMARK   14  A    between atoms: _32  and  _34
REMARK   15  A    between atoms: _34  and  _35
REMARK   16  A    between atoms: _34  and  _37
REMARK   17  A    between atoms: _37  and  _38
REMARK   18  A    between atoms: _41  and  _43
REMARK   19  A    between atoms: _43  and  _44
REMARK   20  A    between atoms: _43  and  _46
REMARK   21  A    between atoms: _46  and  _47
REMARK   22  A    between atoms: _47  and  _48
REMARK   23  A    between atoms: _48  and  _49
REMARK   24  A    between atoms: _58  and  _60
REMARK   25  A    between atoms: _60  and  _61
REMARK   26  A    between atoms: _60  and  _63
REMARK   27  A    between atoms: _63  and  _64
REMARK   28  A    between atoms: _67  and  _69
REMARK   29  A    between atoms: _69  and  _70
REMARK   30  A    between atoms: _69  and  _72
REMARK   31  A    between atoms: _72  and  _73
REMARK   32  A    between atoms: _73  and  _74
REMARK   33  A    between atoms: _78  and  _79
REMARK   34  A    between atoms: _84  and  _86
REMARK   35  A    between atoms: _86  and  _87
REMARK   36  A    between atoms: _86  and  _89
REMARK   37  A    between atoms: _89  and  _90
REMARK   38  A    between atoms: _93  and  _95
REMARK   39  A    between atoms: _95  and  _96
REMARK   40  A    between atoms: _95  and  _98
REMARK   41  A    between atoms: _98  and  _99
REMARK   42  A    between atoms: _102  and  _104
REMARK   43  A    between atoms: _104  and  _105
REMARK   44  A    between atoms: _107  and  _109
REMARK   45  A    between atoms: _109  and  _110
REMARK   46  A    between atoms: _109  and  _112
REMARK   47  A    between atoms: _112  and  _113
REMARK   48  A    between atoms: _113  and  _114
REMARK   49  A    between atoms: _117  and  _118
REMARK   50  A    between atoms: _123  and  _125
REMARK   51  A    between atoms: _125  and  _126
REMARK   52  A    between atoms: _125  and  _128
REMARK   53  A    between atoms: _128  and  _129
REMARK   54  A    between atoms: _129  and  _130
REMARK   55  A    between atoms: _130  and  _131
REMARK   56  A    between atoms: _131  and  _132
REMARK   57  A    between atoms: _137  and  _138
REMARK   58  A    between atoms: _143  and  _145
REMARK   59  A    between atoms: _145  and  _146
REMARK   60  A    between atoms: _145  and  _148
REMARK   61  A    between atoms: _148  and  _149
REMARK   62  A    between atoms: _149  and  _150
REMARK   63  A    between atoms: _154  and  _155
REMARK   64  A    between atoms: _160  and  _162
REMARK   65  A    between atoms: _162  and  _163
REMARK   66  A    between atoms: _162  and  _165
REMARK   67  A    between atoms: _165  and  _166
REMARK   68  A    between atoms: _171  and  _172
REMARK   69  A    between atoms: _174  and  _176
REMARK   70  A    between atoms: _176  and  _177
REMARK   71  A    between atoms: _176  and  _179
REMARK   72  A    between atoms: _179  and  _180
REMARK   73  A    between atoms: _183  and  _185
REMARK   74  A    between atoms: _185  and  _186
REMARK   75  A    between atoms: _185  and  _188
REMARK   76  A    between atoms: _191  and  _193
REMARK   77  A    between atoms: _193  and  _194
REMARK   78  A    between atoms: _193  and  _196
REMARK   79  A    between atoms: _196  and  _197
REMARK   80  A    between atoms: _200  and  _202
REMARK   81  A    between atoms: _202  and  _203
REMARK   82  A    between atoms: _206  and  _208
REMARK   83  A    between atoms: _208  and  _209
REMARK   84  A    between atoms: _208  and  _211
REMARK   85  A    between atoms: _211  and  _212
REMARK   86  A    between atoms: _212  and  _213
REMARK   87  A    between atoms: _215  and  _217
REMARK   88  A    between atoms: _217  and  _218
REMARK   89  A    between atoms: _217  and  _220
REMARK   90  A    between atoms: _220  and  _221
REMARK   91  A    between atoms: _224  and  _226
REMARK   92  A    between atoms: _226  and  _227
REMARK   93  A    between atoms: _230  and  _232
REMARK   94  A    between atoms: _232  and  _233
REMARK   95  A    between atoms: _235  and  _237
REMARK   96  A    between atoms: _237  and  _238
REMARK   97  A    between atoms: _237  and  _240
REMARK   98  A    between atoms: _240  and  _241
REMARK   99  A    between atoms: _241  and  _242
REMARK  100  A    between atoms: _245  and  _247
REMARK  101  A    between atoms: _247  and  _248
REMARK  102  A    between atoms: _247  and  _250
REMARK  103  A    between atoms: _250  and  _251
REMARK  104  A    between atoms: _255  and  _256
REMARK  105  A    between atoms: _262  and  _263
REMARK  106  A    between atoms: _268  and  _270
REMARK  107  A    between atoms: _270  and  _271
REMARK  108  A    between atoms: _270  and  _273
REMARK  109  A    between atoms: _273  and  _274
REMARK  110  A    between atoms: _274  and  _275
REMARK  111  A    between atoms: _275  and  _276
REMARK  112  A    between atoms: _276  and  _277
REMARK                            x       y       z     vdW  Elec       q    Type
REMARK                         _______ _______ _______ _____ _____    ______ ____
ROOT
ATOM      1  O   HOH     1      23.838  -2.535  12.316  0.00  0.00    +0.000 OA
ENDROOT
TORSDOF 0
REMARK  Name = ../refined-set-2016/3jvr/3jvr_pocket.pdb
REMARK  112 active torsions:
REMARK  status: ('A' for Active; 'I' for Inactive)
REMARK    1  A    between atoms: _1  and  _3
REMARK    2  A    between atoms: _3  and  _4
REMARK    3  A    between atoms: _3  and  _6
REMARK    4  A    between atoms: _6  and  _7
REMARK    5  A    between atoms: _7  and  _8
REMARK    6  A    between atoms: _11  and  _13
REMARK    7  A    between atoms: _13  and  _14
REMARK    8  A    between atoms: _13  and  _16
REMARK    9  A    between atoms: _16  and  _17
REMARK   10  A    between atoms: _20  and  _22
REMARK   11  A    between atoms: _22  and  _23
REMARK   12  A    between atoms: _22  and  _25
REMARK   13  A    between atoms: _25  and  _26
REMARK   14  A    between atoms: _32  and  _34
REMARK   15  A    between atoms: _34  and  _35
REMARK   16  A    between atoms: _34  and  _37
REMARK   17  A    between atoms: _37  and  _38
REMARK   18  A    between atoms: _41  and  _43
REMARK   19  A    between atoms: _43  and  _44
REMARK   20  A    between atoms: _43  and  _46
REMARK   21  A    between atoms: _46  and  _47
REMARK   22  A    between atoms: _47  and  _48
REMARK   23  A    between atoms: _48  and  _49
REMARK   24  A    between atoms: _58  and  _60
REMARK   25  A    between atoms: _60  and  _61
REMARK   26  A    between atoms: _60  and  _63
REMARK   27  A    between atoms: _63  and  _64
REMARK   28  A    between atoms: _67  and  _69
REMARK   29  A    between atoms: _69  and  _70
REMARK   30  A    between atoms: _69  and  _72
REMARK   31  A    between atoms: _72  and  _73
REMARK   32  A    between atoms: _73  and  _74
REMARK   33  A    between atoms: _78  and  _79
REMARK   34  A    between atoms: _84  and  _86
REMARK   35  A    between atoms: _86  and  _87
REMARK   36  A    between atoms: _86  and  _89
REMARK   37  A    between atoms: _89  and  _90
REMARK   38  A    between atoms: _93  and  _95
REMARK   39  A    between atoms: _95  and  _96
REMARK   40  A    between atoms: _95  and  _98
REMARK   41  A    between atoms: _98  and  _99
REMARK   42  A    between atoms: _102  and  _104
REMARK   43  A    between atoms: _104  and  _105
REMARK   44  A    between atoms: _107  and  _109
REMARK   45  A    between atoms: _109  and  _110
REMARK   46  A    between atoms: _109  and  _112
REMARK   47  A    between atoms: _112  and  _113
REMARK   48  A    between atoms: _113  and  _114
REMARK   49  A    between atoms: _117  and  _118
REMARK   50  A    between atoms: _123  and  _125
REMARK   51  A    between atoms: _125  and  _126
REMARK   52  A    between atoms: _125  and  _128
REMARK   53  A    between atoms: _128  and  _129
REMARK   54  A    between atoms: _129  and  _130
REMARK   55  A    between atoms: _130  and  _131
REMARK   56  A    between atoms: _131  and  _132
REMARK   57  A    between atoms: _137  and  _138
REMARK   58  A    between atoms: _143  and  _145
REMARK   59  A    between atoms: _145  and  _146
REMARK   60  A    between atoms: _145  and  _148
REMARK   61  A    between atoms: _148  and  _149
REMARK   62  A    between atoms: _149  and  _150
REMARK   63  A    between atoms: _154  and  _155
REMARK   64  A    between atoms: _160  and  _162
REMARK   65  A    between atoms: _162  and  _163
REMARK   66  A    between atoms: _162  and  _165
REMARK   67  A    between atoms: _165  and  _166
REMARK   68  A    between atoms: _171  and  _172
REMARK   69  A    between atoms: _174  and  _176
REMARK   70  A    between atoms: _176  and  _177
REMARK   71  A    between atoms: _176  and  _179
REMARK   72  A    between atoms: _179  and  _180
REMARK   73  A    between atoms: _183  and  _185
REMARK   74  A    between atoms: _185  and  _186
REMARK   75  A    between atoms: _185  and  _188
REMARK   76  A    between atoms: _191  and  _193
REMARK   77  A    between atoms: _193  and  _194
REMARK   78  A    between atoms: _193  and  _196
REMARK   79  A    between atoms: _196  and  _197
REMARK   80  A    between atoms: _200  and  _202
REMARK   81  A    between atoms: _202  and  _203
REMARK   82  A    between atoms: _206  and  _208
REMARK   83  A    between atoms: _208  and  _209
REMARK   84  A    between atoms: _208  and  _211
REMARK   85  A    between atoms: _211  and  _212
REMARK   86  A    between atoms: _212  and  _213
REMARK   87  A    between atoms: _215  and  _217
REMARK   88  A    between atoms: _217  and  _218
REMARK   89  A    between atoms: _217  and  _220
REMARK   90  A    between atoms: _220  and  _221
REMARK   91  A    between atoms: _224  and  _226
REMARK   92  A    between atoms: _226  and  _227
REMARK   93  A    between atoms: _230  and  _232
REMARK   94  A    between atoms: _232  and  _233
REMARK   95  A    between atoms: _235  and  _237
REMARK   96  A    between atoms: _237  and  _238
REMARK   97  A    between atoms: _237  and  _240
REMARK   98  A    between atoms: _240  and  _241
REMARK   99  A    between atoms: _241  and  _242
REMARK  100  A    between atoms: _245  and  _247
REMARK  101  A    between atoms: _247  and  _248
REMARK  102  A    between atoms: _247  and  _250
REMARK  103  A    between atoms: _250  and  _251
REMARK  104  A    between atoms: _255  and  _256
REMARK  105  A    between atoms: _262  and  _263
REMARK  106  A    between atoms: _268  and  _270
REMARK  107  A    between atoms: _270  and  _271
REMARK  108  A    between atoms: _270  and  _273
REMARK  109  A    between atoms: _273  and  _274
REMARK  110  A    between atoms: _274  and  _275
REMARK  111  A    between atoms: _275  and  _276
REMARK  112  A    between atoms: _276  and  _277
REMARK                            x       y       z     vdW  Elec       q    Type
REMARK                         _______ _______ _______ _____ _____    ______ ____
ROOT
ATOM      1  O   HOH     1      22.208  -8.638  20.747  0.00  0.00    +0.000 OA
ENDROOT
TORSDOF 0
REMARK  Name = ../refined-set-2016/3jvr/3jvr_pocket.pdb
REMARK  112 active torsions:
REMARK  status: ('A' for Active; 'I' for Inactive)
REMARK    1  A    between atoms: _1  and  _3
REMARK    2  A    between atoms: _3  and  _4
REMARK    3  A    between atoms: _3  and  _6
REMARK    4  A    between atoms: _6  and  _7
REMARK    5  A    between atoms: _7  and  _8
REMARK    6  A    between atoms: _11  and  _13
REMARK    7  A    between atoms: _13  and  _14
REMARK    8  A    between atoms: _13  and  _16
REMARK    9  A    between atoms: _16  and  _17
REMARK   10  A    between atoms: _20  and  _22
REMARK   11  A    between atoms: _22  and  _23
REMARK   12  A    between atoms: _22  and  _25
REMARK   13  A    between atoms: _25  and  _26
REMARK   14  A    between atoms: _32  and  _34
REMARK   15  A    between atoms: _34  and  _35
REMARK   16  A    between atoms: _34  and  _37
REMARK   17  A    between atoms: _37  and  _38
REMARK   18  A    between atoms: _41  and  _43
REMARK   19  A    between atoms: _43  and  _44
REMARK   20  A    between atoms: _43  and  _46
REMARK   21  A    between atoms: _46  and  _47
REMARK   22  A    between atoms: _47  and  _48
REMARK   23  A    between atoms: _48  and  _49
REMARK   24  A    between atoms: _58  and  _60
REMARK   25  A    between atoms: _60  and  _61
REMARK   26  A    between atoms: _60  and  _63
REMARK   27  A    between atoms: _63  and  _64
REMARK   28  A    between atoms: _67  and  _69
REMARK   29  A    between atoms: _69  and  _70
REMARK   30  A    between atoms: _69  and  _72
REMARK   31  A    between atoms: _72  and  _73
REMARK   32  A    between atoms: _73  and  _74
REMARK   33  A    between atoms: _78  and  _79
REMARK   34  A    between atoms: _84  and  _86
REMARK   35  A    between atoms: _86  and  _87
REMARK   36  A    between atoms: _86  and  _89
REMARK   37  A    between atoms: _89  and  _90
REMARK   38  A    between atoms: _93  and  _95
REMARK   39  A    between atoms: _95  and  _96
REMARK   40  A    between atoms: _95  and  _98
REMARK   41  A    between atoms: _98  and  _99
REMARK   42  A    between atoms: _102  and  _104
REMARK   43  A    between atoms: _104  and  _105
REMARK   44  A    between atoms: _107  and  _109
REMARK   45  A    between atoms: _109  and  _110
REMARK   46  A    between atoms: _109  and  _112
REMARK   47  A    between atoms: _112  and  _113
REMARK   48  A    between atoms: _113  and  _114
REMARK   49  A    between atoms: _117  and  _118
REMARK   50  A    between atoms: _123  and  _125
REMARK   51  A    between atoms: _125  and  _126
REMARK   52  A    between atoms: _125  and  _128
REMARK   53  A    between atoms: _128  and  _129
REMARK   54  A    between atoms: _129  and  _130
REMARK   55  A    between atoms: _130  and  _131
REMARK   56  A    between atoms: _131  and  _132
REMARK   57  A    between atoms: _137  and  _138
REMARK   58  A    between atoms: _143  and  _145
REMARK   59  A    between atoms: _145  and  _146
REMARK   60  A    between atoms: _145  and  _148
REMARK   61  A    between atoms: _148  and  _149
REMARK   62  A    between atoms: _149  and  _150
REMARK   63  A    between atoms: _154  and  _155
REMARK   64  A    between atoms: _160  and  _162
REMARK   65  A    between atoms: _162  and  _163
REMARK   66  A    between atoms: _162  and  _165
REMARK   67  A    between atoms: _165  and  _166
REMARK   68  A    between atoms: _171  and  _172
REMARK   69  A    between atoms: _174  and  _176
REMARK   70  A    between atoms: _176  and  _177
REMARK   71  A    between atoms: _176  and  _179
REMARK   72  A    between atoms: _179  and  _180
REMARK   73  A    between atoms: _183  and  _185
REMARK   74  A    between atoms: _185  and  _186
REMARK   75  A    between atoms: _185  and  _188
REMARK   76  A    between atoms: _191  and  _193
REMARK   77  A    between atoms: _193  and  _194
REMARK   78  A    between atoms: _193  and  _196
REMARK   79  A    between atoms: _196  and  _197
REMARK   80  A    between atoms: _200  and  _202
REMARK   81  A    between atoms: _202  and  _203
REMARK   82  A    between atoms: _206  and  _208
REMARK   83  A    between atoms: _208  and  _209
REMARK   84  A    between atoms: _208  and  _211
REMARK   85  A    between atoms: _211  and  _212
REMARK   86  A    between atoms: _212  and  _213
REMARK   87  A    between atoms: _215  and  _217
REMARK   88  A    between atoms: _217  and  _218
REMARK   89  A    between atoms: _217  and  _220
REMARK   90  A    between atoms: _220  and  _221
REMARK   91  A    between atoms: _224  and  _226
REMARK   92  A    between atoms: _226  and  _227
REMARK   93  A    between atoms: _230  and  _232
REMARK   94  A    between atoms: _232  and  _233
REMARK   95  A    between atoms: _235  and  _237
REMARK   96  A    between atoms: _237  and  _238
REMARK   97  A    between atoms: _237  and  _240
REMARK   98  A    between atoms: _240  and  _241
REMARK   99  A    between atoms: _241  and  _242
REMARK  100  A    between atoms: _245  and  _247
REMARK  101  A    between atoms: _247  and  _248
REMARK  102  A    between atoms: _247  and  _250
REMARK  103  A    between atoms: _250  and  _251
REMARK  104  A    between atoms: _255  and  _256
REMARK  105  A    between atoms: _262  and  _263
REMARK  106  A    between atoms: _268  and  _270
REMARK  107  A    between atoms: _270  and  _271
REMARK  108  A    between atoms: _270  and  _273
REMARK  109  A    between atoms: _273  and  _274
REMARK  110  A    between atoms: _274  and  _275
REMARK  111  A    between atoms: _275  and  _276
REMARK  112  A    between atoms: _276  and  _277
REMARK                            x       y       z     vdW  Elec       q    Type
REMARK                         _______ _______ _______ _____ _____    ______ ____
ROOT
ATOM      1  O   HOH     1      39.400   2.601  20.047  0.00  0.00    +0.000 OA
ENDROOT
TORSDOF 0
REMARK  Name = ../refined-set-2016/3jvr/3jvr_pocket.pdb
REMARK  112 active torsions:
REMARK  status: ('A' for Active; 'I' for Inactive)
REMARK    1  A    between atoms: _1  and  _3
REMARK    2  A    between atoms: _3  and  _4
REMARK    3  A    between atoms: _3  and  _6
REMARK    4  A    between atoms: _6  and  _7
REMARK    5  A    between atoms: _7  and  _8
REMARK    6  A    between atoms: _11  and  _13
REMARK    7  A    between atoms: _13  and  _14
REMARK    8  A    between atoms: _13  and  _16
REMARK    9  A    between atoms: _16  and  _17
REMARK   10  A    between atoms: _20  and  _22
REMARK   11  A    between atoms: _22  and  _23
REMARK   12  A    between atoms: _22  and  _25
REMARK   13  A    between atoms: _25  and  _26
REMARK   14  A    between atoms: _32  and  _34
REMARK   15  A    between atoms: _34  and  _35
REMARK   16  A    between atoms: _34  and  _37
REMARK   17  A    between atoms: _37  and  _38
REMARK   18  A    between atoms: _41  and  _43
REMARK   19  A    between atoms: _43  and  _44
REMARK   20  A    between atoms: _43  and  _46
REMARK   21  A    between atoms: _46  and  _47
REMARK   22  A    between atoms: _47  and  _48
REMARK   23  A    between atoms: _48  and  _49
REMARK   24  A    between atoms: _58  and  _60
REMARK   25  A    between atoms: _60  and  _61
REMARK   26  A    between atoms: _60  and  _63
REMARK   27  A    between atoms: _63  and  _64
REMARK   28  A    between atoms: _67  and  _69
REMARK   29  A    between atoms: _69  and  _70
REMARK   30  A    between atoms: _69  and  _72
REMARK   31  A    between atoms: _72  and  _73
REMARK   32  A    between atoms: _73  and  _74
REMARK   33  A    between atoms: _78  and  _79
REMARK   34  A    between atoms: _84  and  _86
REMARK   35  A    between atoms: _86  and  _87
REMARK   36  A    between atoms: _86  and  _89
REMARK   37  A    between atoms: _89  and  _90
REMARK   38  A    between atoms: _93  and  _95
REMARK   39  A    between atoms: _95  and  _96
REMARK   40  A    between atoms: _95  and  _98
REMARK   41  A    between atoms: _98  and  _99
REMARK   42  A    between atoms: _102  and  _104
REMARK   43  A    between atoms: _104  and  _105
REMARK   44  A    between atoms: _107  and  _109
REMARK   45  A    between atoms: _109  and  _110
REMARK   46  A    between atoms: _109  and  _112
REMARK   47  A    between atoms: _112  and  _113
REMARK   48  A    between atoms: _113  and  _114
REMARK   49  A    between atoms: _117  and  _118
REMARK   50  A    between atoms: _123  and  _125
REMARK   51  A    between atoms: _125  and  _126
REMARK   52  A    between atoms: _125  and  _128
REMARK   53  A    between atoms: _128  and  _129
REMARK   54  A    between atoms: _129  and  _130
REMARK   55  A    between atoms: _130  and  _131
REMARK   56  A    between atoms: _131  and  _132
REMARK   57  A    between atoms: _137  and  _138
REMARK   58  A    between atoms: _143  and  _145
REMARK   59  A    between atoms: _145  and  _146
REMARK   60  A    between atoms: _145  and  _148
REMARK   61  A    between atoms: _148  and  _149
REMARK   62  A    between atoms: _149  and  _150
REMARK   63  A    between atoms: _154  and  _155
REMARK   64  A    between atoms: _160  and  _162
REMARK   65  A    between atoms: _162  and  _163
REMARK   66  A    between atoms: _162  and  _165
REMARK   67  A    between atoms: _165  and  _166
REMARK   68  A    between atoms: _171  and  _172
REMARK   69  A    between atoms: _174  and  _176
REMARK   70  A    between atoms: _176  and  _177
REMARK   71  A    between atoms: _176  and  _179
REMARK   72  A    between atoms: _179  and  _180
REMARK   73  A    between atoms: _183  and  _185
REMARK   74  A    between atoms: _185  and  _186
REMARK   75  A    between atoms: _185  and  _188
REMARK   76  A    between atoms: _191  and  _193
REMARK   77  A    between atoms: _193  and  _194
REMARK   78  A    between atoms: _193  and  _196
REMARK   79  A    between atoms: _196  and  _197
REMARK   80  A    between atoms: _200  and  _202
REMARK   81  A    between atoms: _202  and  _203
REMARK   82  A    between atoms: _206  and  _208
REMARK   83  A    between atoms: _208  and  _209
REMARK   84  A    between atoms: _208  and  _211
REMARK   85  A    between atoms: _211  and  _212
REMARK   86  A    between atoms: _212  and  _213
REMARK   87  A    between atoms: _215  and  _217
REMARK   88  A    between atoms: _217  and  _218
REMARK   89  A    between atoms: _217  and  _220
REMARK   90  A    between atoms: _220  and  _221
REMARK   91  A    between atoms: _224  and  _226
REMARK   92  A    between atoms: _226  and  _227
REMARK   93  A    between atoms: _230  and  _232
REMARK   94  A    between atoms: _232  and  _233
REMARK   95  A    between atoms: _235  and  _237
REMARK   96  A    between atoms: _237  and  _238
REMARK   97  A    between atoms: _237  and  _240
REMARK   98  A    between atoms: _240  and  _241
REMARK   99  A    between atoms: _241  and  _242
REMARK  100  A    between atoms: _245  and  _247
REMARK  101  A    between atoms: _247  and  _248
REMARK  102  A    between atoms: _247  and  _250
REMARK  103  A    between atoms: _250  and  _251
REMARK  104  A    between atoms: _255  and  _256
REMARK  105  A    between atoms: _262  and  _263
REMARK  106  A    between atoms: _268  and  _270
REMARK  107  A    between atoms: _270  and  _271
REMARK  108  A    between atoms: _270  and  _273
REMARK  109  A    between atoms: _273  and  _274
REMARK  110  A    between atoms: _274  and  _275
REMARK  111  A    between atoms: _275  and  _276
REMARK  112  A    between atoms: _276  and  _277
REMARK                            x       y       z     vdW  Elec       q    Type
REMARK                         _______ _______ _______ _____ _____    ______ ____
ROOT
ATOM      1  O   HOH     1      29.500   6.126  15.980  0.00  0.00    +0.000 OA
ENDROOT
TORSDOF 0
REMARK  Name = ../refined-set-2016/3jvr/3jvr_pocket.pdb
REMARK  112 active torsions:
REMARK  status: ('A' for Active; 'I' for Inactive)
REMARK    1  A    between atoms: _1  and  _3
REMARK    2  A    between atoms: _3  and  _4
REMARK    3  A    between atoms: _3  and  _6
REMARK    4  A    between atoms: _6  and  _7
REMARK    5  A    between atoms: _7  and  _8
REMARK    6  A    between atoms: _11  and  _13
REMARK    7  A    between atoms: _13  and  _14
REMARK    8  A    between atoms: _13  and  _16
REMARK    9  A    between atoms: _16  and  _17
REMARK   10  A    between atoms: _20  and  _22
REMARK   11  A    between atoms: _22  and  _23
REMARK   12  A    between atoms: _22  and  _25
REMARK   13  A    between atoms: _25  and  _26
REMARK   14  A    between atoms: _32  and  _34
REMARK   15  A    between atoms: _34  and  _35
REMARK   16  A    between atoms: _34  and  _37
REMARK   17  A    between atoms: _37  and  _38
REMARK   18  A    between atoms: _41  and  _43
REMARK   19  A    between atoms: _43  and  _44
REMARK   20  A    between atoms: _43  and  _46
REMARK   21  A    between atoms: _46  and  _47
REMARK   22  A    between atoms: _47  and  _48
REMARK   23  A    between atoms: _48  and  _49
REMARK   24  A    between atoms: _58  and  _60
REMARK   25  A    between atoms: _60  and  _61
REMARK   26  A    between atoms: _60  and  _63
REMARK   27  A    between atoms: _63  and  _64
REMARK   28  A    between atoms: _67  and  _69
REMARK   29  A    between atoms: _69  and  _70
REMARK   30  A    between atoms: _69  and  _72
REMARK   31  A    between atoms: _72  and  _73
REMARK   32  A    between atoms: _73  and  _74
REMARK   33  A    between atoms: _78  and  _79
REMARK   34  A    between atoms: _84  and  _86
REMARK   35  A    between atoms: _86  and  _87
REMARK   36  A    between atoms: _86  and  _89
REMARK   37  A    between atoms: _89  and  _90
REMARK   38  A    between atoms: _93  and  _95
REMARK   39  A    between atoms: _95  and  _96
REMARK   40  A    between atoms: _95  and  _98
REMARK   41  A    between atoms: _98  and  _99
REMARK   42  A    between atoms: _102  and  _104
REMARK   43  A    between atoms: _104  and  _105
REMARK   44  A    between atoms: _107  and  _109
REMARK   45  A    between atoms: _109  and  _110
REMARK   46  A    between atoms: _109  and  _112
REMARK   47  A    between atoms: _112  and  _113
REMARK   48  A    between atoms: _113  and  _114
REMARK   49  A    between atoms: _117  and  _118
REMARK   50  A    between atoms: _123  and  _125
REMARK   51  A    between atoms: _125  and  _126
REMARK   52  A    between atoms: _125  and  _128
REMARK   53  A    between atoms: _128  and  _129
REMARK   54  A    between atoms: _129  and  _130
REMARK   55  A    between atoms: _130  and  _131
REMARK   56  A    between atoms: _131  and  _132
REMARK   57  A    between atoms: _137  and  _138
REMARK   58  A    between atoms: _143  and  _145
REMARK   59  A    between atoms: _145  and  _146
REMARK   60  A    between atoms: _145  and  _148
REMARK   61  A    between atoms: _148  and  _149
REMARK   62  A    between atoms: _149  and  _150
REMARK   63  A    between atoms: _154  and  _155
REMARK   64  A    between atoms: _160  and  _162
REMARK   65  A    between atoms: _162  and  _163
REMARK   66  A    between atoms: _162  and  _165
REMARK   67  A    between atoms: _165  and  _166
REMARK   68  A    between atoms: _171  and  _172
REMARK   69  A    between atoms: _174  and  _176
REMARK   70  A    between atoms: _176  and  _177
REMARK   71  A    between atoms: _176  and  _179
REMARK   72  A    between atoms: _179  and  _180
REMARK   73  A    between atoms: _183  and  _185
REMARK   74  A    between atoms: _185  and  _186
REMARK   75  A    between atoms: _185  and  _188
REMARK   76  A    between atoms: _191  and  _193
REMARK   77  A    between atoms: _193  and  _194
REMARK   78  A    between atoms: _193  and  _196
REMARK   79  A    between atoms: _196  and  _197
REMARK   80  A    between atoms: _200  and  _202
REMARK   81  A    between atoms: _202  and  _203
REMARK   82  A    between atoms: _206  and  _208
REMARK   83  A    between atoms: _208  and  _209
REMARK   84  A    between atoms: _208  and  _211
REMARK   85  A    between atoms: _211  and  _212
REMARK   86  A    between atoms: _212  and  _213
REMARK   87  A    between atoms: _215  and  _217
REMARK   88  A    between atoms: _217  and  _218
REMARK   89  A    between atoms: _217  and  _220
REMARK   90  A    between atoms: _220  and  _221
REMARK   91  A    between atoms: _224  and  _226
REMARK   92  A    between atoms: _226  and  _227
REMARK   93  A    between atoms: _230  and  _232
REMARK   94  A    between atoms: _232  and  _233
REMARK   95  A    between atoms: _235  and  _237
REMARK   96  A    between atoms: _237  and  _238
REMARK   97  A    between atoms: _237  and  _240
REMARK   98  A    between atoms: _240  and  _241
REMARK   99  A    between atoms: _241  and  _242
REMARK  100  A    between atoms: _245  and  _247
REMARK  101  A    between atoms: _247  and  _248
REMARK  102  A    between atoms: _247  and  _250
REMARK  103  A    between atoms: _250  and  _251
REMARK  104  A    between atoms: _255  and  _256
REMARK  105  A    between atoms: _262  and  _263
REMARK  106  A    between atoms: _268  and  _270
REMARK  107  A    between atoms: _270  and  _271
REMARK  108  A    between atoms: _270  and  _273
REMARK  109  A    between atoms: _273  and  _274
REMARK  110  A    between atoms: _274  and  _275
REMARK  111  A    between atoms: _275  and  _276
REMARK  112  A    between atoms: _276  and  _277
REMARK                            x       y       z     vdW  Elec       q    Type
REMARK                         _______ _______ _______ _____ _____    ______ ____
ROOT
ATOM      1  O   HOH     1      31.445  -6.086  26.630  0.00  0.00    +0.000 OA
ENDROOT
TORSDOF 0
REMARK  Name = ../refined-set-2016/3jvr/3jvr_pocket.pdb
REMARK  112 active torsions:
REMARK  status: ('A' for Active; 'I' for Inactive)
REMARK    1  A    between atoms: _1  and  _3
REMARK    2  A    between atoms: _3  and  _4
REMARK    3  A    between atoms: _3  and  _6
REMARK    4  A    between atoms: _6  and  _7
REMARK    5  A    between atoms: _7  and  _8
REMARK    6  A    between atoms: _11  and  _13
REMARK    7  A    between atoms: _13  and  _14
REMARK    8  A    between atoms: _13  and  _16
REMARK    9  A    between atoms: _16  and  _17
REMARK   10  A    between atoms: _20  and  _22
REMARK   11  A    between atoms: _22  and  _23
REMARK   12  A    between atoms: _22  and  _25
REMARK   13  A    between atoms: _25  and  _26
REMARK   14  A    between atoms: _32  and  _34
REMARK   15  A    between atoms: _34  and  _35
REMARK   16  A    between atoms: _34  and  _37
REMARK   17  A    between atoms: _37  and  _38
REMARK   18  A    between atoms: _41  and  _43
REMARK   19  A    between atoms: _43  and  _44
REMARK   20  A    between atoms: _43  and  _46
REMARK   21  A    between atoms: _46  and  _47
REMARK   22  A    between atoms: _47  and  _48
REMARK   23  A    between atoms: _48  and  _49
REMARK   24  A    between atoms: _58  and  _60
REMARK   25  A    between atoms: _60  and  _61
REMARK   26  A    between atoms: _60  and  _63
REMARK   27  A    between atoms: _63  and  _64
REMARK   28  A    between atoms: _67  and  _69
REMARK   29  A    between atoms: _69  and  _70
REMARK   30  A    between atoms: _69  and  _72
REMARK   31  A    between atoms: _72  and  _73
REMARK   32  A    between atoms: _73  and  _74
REMARK   33  A    between atoms: _78  and  _79
REMARK   34  A    between atoms: _84  and  _86
REMARK   35  A    between atoms: _86  and  _87
REMARK   36  A    between atoms: _86  and  _89
REMARK   37  A    between atoms: _89  and  _90
REMARK   38  A    between atoms: _93  and  _95
REMARK   39  A    between atoms: _95  and  _96
REMARK   40  A    between atoms: _95  and  _98
REMARK   41  A    between atoms: _98  and  _99
REMARK   42  A    between atoms: _102  and  _104
REMARK   43  A    between atoms: _104  and  _105
REMARK   44  A    between atoms: _107  and  _109
REMARK   45  A    between atoms: _109  and  _110
REMARK   46  A    between atoms: _109  and  _112
REMARK   47  A    between atoms: _112  and  _113
REMARK   48  A    between atoms: _113  and  _114
REMARK   49  A    between atoms: _117  and  _118
REMARK   50  A    between atoms: _123  and  _125
REMARK   51  A    between atoms: _125  and  _126
REMARK   52  A    between atoms: _125  and  _128
REMARK   53  A    between atoms: _128  and  _129
REMARK   54  A    between atoms: _129  and  _130
REMARK   55  A    between atoms: _130  and  _131
REMARK   56  A    between atoms: _131  and  _132
REMARK   57  A    between atoms: _137  and  _138
REMARK   58  A    between atoms: _143  and  _145
REMARK   59  A    between atoms: _145  and  _146
REMARK   60  A    between atoms: _145  and  _148
REMARK   61  A    between atoms: _148  and  _149
REMARK   62  A    between atoms: _149  and  _150
REMARK   63  A    between atoms: _154  and  _155
REMARK   64  A    between atoms: _160  and  _162
REMARK   65  A    between atoms: _162  and  _163
REMARK   66  A    between atoms: _162  and  _165
REMARK   67  A    between atoms: _165  and  _166
REMARK   68  A    between atoms: _171  and  _172
REMARK   69  A    between atoms: _174  and  _176
REMARK   70  A    between atoms: _176  and  _177
REMARK   71  A    between atoms: _176  and  _179
REMARK   72  A    between atoms: _179  and  _180
REMARK   73  A    between atoms: _183  and  _185
REMARK   74  A    between atoms: _185  and  _186
REMARK   75  A    between atoms: _185  and  _188
REMARK   76  A    between atoms: _191  and  _193
REMARK   77  A    between atoms: _193  and  _194
REMARK   78  A    between atoms: _193  and  _196
REMARK   79  A    between atoms: _196  and  _197
REMARK   80  A    between atoms: _200  and  _202
REMARK   81  A    between atoms: _202  and  _203
REMARK   82  A    between atoms: _206  and  _208
REMARK   83  A    between atoms: _208  and  _209
REMARK   84  A    between atoms: _208  and  _211
REMARK   85  A    between atoms: _211  and  _212
REMARK   86  A    between atoms: _212  and  _213
REMARK   87  A    between atoms: _215  and  _217
REMARK   88  A    between atoms: _217  and  _218
REMARK   89  A    between atoms: _217  and  _220
REMARK   90  A    between atoms: _220  and  _221
REMARK   91  A    between atoms: _224  and  _226
REMARK   92  A    between atoms: _226  and  _227
REMARK   93  A    between atoms: _230  and  _232
REMARK   94  A    between atoms: _232  and  _233
REMARK   95  A    between atoms: _235  and  _237
REMARK   96  A    between atoms: _237  and  _238
REMARK   97  A    between atoms: _237  and  _240
REMARK   98  A    between atoms: _240  and  _241
REMARK   99  A    between atoms: _241  and  _242
REMARK  100  A    between atoms: _245  and  _247
REMARK  101  A    between atoms: _247  and  _248
REMARK  102  A    between atoms: _247  and  _250
REMARK  103  A    between atoms: _250  and  _251
REMARK  104  A    between atoms: _255  and  _256
REMARK  105  A    between atoms: _262  and  _263
REMARK  106  A    between atoms: _268  and  _270
REMARK  107  A    between atoms: _270  and  _271
REMARK  108  A    between atoms: _270  and  _273
REMARK  109  A    between atoms: _273  and  _274
REMARK  110  A    between atoms: _274  and  _275
REMARK  111  A    between atoms: _275  and  _276
REMARK  112  A    between atoms: _276  and  _277
REMARK                            x       y       z     vdW  Elec       q    Type
REMARK                         _______ _______ _______ _____ _____    ______ ____
ROOT
ATOM      1  O   HOH     1      33.089   3.369  19.451  0.00  0.00    +0.000 OA
ENDROOT
TORSDOF 0
REMARK  Name = ../refined-set-2016/3jvr/3jvr_pocket.pdb
REMARK  112 active torsions:
REMARK  status: ('A' for Active; 'I' for Inactive)
REMARK    1  A    between atoms: _1  and  _3
REMARK    2  A    between atoms: _3  and  _4
REMARK    3  A    between atoms: _3  and  _6
REMARK    4  A    between atoms: _6  and  _7
REMARK    5  A    between atoms: _7  and  _8
REMARK    6  A    between atoms: _11  and  _13
REMARK    7  A    between atoms: _13  and  _14
REMARK    8  A    between atoms: _13  and  _16
REMARK    9  A    between atoms: _16  and  _17
REMARK   10  A    between atoms: _20  and  _22
REMARK   11  A    between atoms: _22  and  _23
REMARK   12  A    between atoms: _22  and  _25
REMARK   13  A    between atoms: _25  and  _26
REMARK   14  A    between atoms: _32  and  _34
REMARK   15  A    between atoms: _34  and  _35
REMARK   16  A    between atoms: _34  and  _37
REMARK   17  A    between atoms: _37  and  _38
REMARK   18  A    between atoms: _41  and  _43
REMARK   19  A    between atoms: _43  and  _44
REMARK   20  A    between atoms: _43  and  _46
REMARK   21  A    between atoms: _46  and  _47
REMARK   22  A    between atoms: _47  and  _48
REMARK   23  A    between atoms: _48  and  _49
REMARK   24  A    between atoms: _58  and  _60
REMARK   25  A    between atoms: _60  and  _61
REMARK   26  A    between atoms: _60  and  _63
REMARK   27  A    between atoms: _63  and  _64
REMARK   28  A    between atoms: _67  and  _69
REMARK   29  A    between atoms: _69  and  _70
REMARK   30  A    between atoms: _69  and  _72
REMARK   31  A    between atoms: _72  and  _73
REMARK   32  A    between atoms: _73  and  _74
REMARK   33  A    between atoms: _78  and  _79
REMARK   34  A    between atoms: _84  and  _86
REMARK   35  A    between atoms: _86  and  _87
REMARK   36  A    between atoms: _86  and  _89
REMARK   37  A    between atoms: _89  and  _90
REMARK   38  A    between atoms: _93  and  _95
REMARK   39  A    between atoms: _95  and  _96
REMARK   40  A    between atoms: _95  and  _98
REMARK   41  A    between atoms: _98  and  _99
REMARK   42  A    between atoms: _102  and  _104
REMARK   43  A    between atoms: _104  and  _105
REMARK   44  A    between atoms: _107  and  _109
REMARK   45  A    between atoms: _109  and  _110
REMARK   46  A    between atoms: _109  and  _112
REMARK   47  A    between atoms: _112  and  _113
REMARK   48  A    between atoms: _113  and  _114
REMARK   49  A    between atoms: _117  and  _118
REMARK   50  A    between atoms: _123  and  _125
REMARK   51  A    between atoms: _125  and  _126
REMARK   52  A    between atoms: _125  and  _128
REMARK   53  A    between atoms: _128  and  _129
REMARK   54  A    between atoms: _129  and  _130
REMARK   55  A    between atoms: _130  and  _131
REMARK   56  A    between atoms: _131  and  _132
REMARK   57  A    between atoms: _137  and  _138
REMARK   58  A    between atoms: _143  and  _145
REMARK   59  A    between atoms: _145  and  _146
REMARK   60  A    between atoms: _145  and  _148
REMARK   61  A    between atoms: _148  and  _149
REMARK   62  A    between atoms: _149  and  _150
REMARK   63  A    between atoms: _154  and  _155
REMARK   64  A    between atoms: _160  and  _162
REMARK   65  A    between atoms: _162  and  _163
REMARK   66  A    between atoms: _162  and  _165
REMARK   67  A    between atoms: _165  and  _166
REMARK   68  A    between atoms: _171  and  _172
REMARK   69  A    between atoms: _174  and  _176
REMARK   70  A    between atoms: _176  and  _177
REMARK   71  A    between atoms: _176  and  _179
REMARK   72  A    between atoms: _179  and  _180
REMARK   73  A    between atoms: _183  and  _185
REMARK   74  A    between atoms: _185  and  _186
REMARK   75  A    between atoms: _185  and  _188
REMARK   76  A    between atoms: _191  and  _193
REMARK   77  A    between atoms: _193  and  _194
REMARK   78  A    between atoms: _193  and  _196
REMARK   79  A    between atoms: _196  and  _197
REMARK   80  A    between atoms: _200  and  _202
REMARK   81  A    between atoms: _202  and  _203
REMARK   82  A    between atoms: _206  and  _208
REMARK   83  A    between atoms: _208  and  _209
REMARK   84  A    between atoms: _208  and  _211
REMARK   85  A    between atoms: _211  and  _212
REMARK   86  A    between atoms: _212  and  _213
REMARK   87  A    between atoms: _215  and  _217
REMARK   88  A    between atoms: _217  and  _218
REMARK   89  A    between atoms: _217  and  _220
REMARK   90  A    between atoms: _220  and  _221
REMARK   91  A    between atoms: _224  and  _226
REMARK   92  A    between atoms: _226  and  _227
REMARK   93  A    between atoms: _230  and  _232
REMARK   94  A    between atoms: _232  and  _233
REMARK   95  A    between atoms: _235  and  _237
REMARK   96  A    between atoms: _237  and  _238
REMARK   97  A    between atoms: _237  and  _240
REMARK   98  A    between atoms: _240  and  _241
REMARK   99  A    between atoms: _241  and  _242
REMARK  100  A    between atoms: _245  and  _247
REMARK  101  A    between atoms: _247  and  _248
REMARK  102  A    between atoms: _247  and  _250
REMARK  103  A    between atoms: _250  and  _251
REMARK  104  A    between atoms: _255  and  _256
REMARK  105  A    between atoms: _262  and  _263
REMARK  106  A    between atoms: _268  and  _270
REMARK  107  A    between atoms: _270  and  _271
REMARK  108  A    between atoms: _270  and  _273
REMARK  109  A    between atoms: _273  and  _274
REMARK  110  A    between atoms: _274  and  _275
REMARK  111  A    between atoms: _275  and  _276
REMARK  112  A    between atoms: _276  and  _277
REMARK                            x       y       z     vdW  Elec       q    Type
REMARK                         _______ _______ _______ _____ _____    ______ ____
ROOT
ATOM      1  O   HOH     1      35.756   3.037  19.533  0.00  0.00    +0.000 OA
ENDROOT
TORSDOF 0
