REMARK  Name = ../refined-set-2016/3s43/3s43_pocket.pdb
REMARK  235 active torsions:
REMARK  status: ('A' for Active; 'I' for Inactive)
REMARK    1  A    between atoms: _1  and  _3
REMARK    2  A    between atoms: _3  and  _4
REMARK    3  A    between atoms: _3  and  _6
REMARK    4  A    between atoms: _6  and  _7
REMARK    5  A    between atoms: _7  and  _8
REMARK    6  A    between atoms: _8  and  _9
REMARK    7  A    between atoms: _18  and  _20
REMARK    8  A    between atoms: _20  and  _21
REMARK    9  A    between atoms: _20  and  _23
REMARK   10  A    between atoms: _23  and  _24
REMARK   11  A    between atoms: _27  and  _29
REMARK   12  A    between atoms: _29  and  _30
REMARK   13  A    between atoms: _29  and  _32
REMARK   14  A    between atoms: _32  and  _33
REMARK   15  A    between atoms: _36  and  _38
REMARK   16  A    between atoms: _38  and  _39
REMARK   17  A    between atoms: _38  and  _41
REMARK   18  A    between atoms: _41  and  _42
REMARK   19  A    between atoms: _45  and  _47
REMARK   20  A    between atoms: _47  and  _48
REMARK   21  A    between atoms: _47  and  _50
REMARK   22  A    between atoms: _50  and  _51
REMARK   23  A    between atoms: _54  and  _56
REMARK   24  A    between atoms: _56  and  _57
REMARK   25  A    between atoms: _59  and  _61
REMARK   26  A    between atoms: _61  and  _62
REMARK   27  A    between atoms: _65  and  _67
REMARK   28  A    between atoms: _67  and  _68
REMARK   29  A    between atoms: _67  and  _70
REMARK   30  A    between atoms: _70  and  _71
REMARK   31  A    between atoms: _74  and  _76
REMARK   32  A    between atoms: _76  and  _77
REMARK   33  A    between atoms: _76  and  _79
REMARK   34  A    between atoms: _79  and  _80
REMARK   35  A    between atoms: _83  and  _85
REMARK   36  A    between atoms: _85  and  _86
REMARK   37  A    between atoms: _85  and  _88
REMARK   38  A    between atoms: _88  and  _89
REMARK   39  A    between atoms: _92  and  _94
REMARK   40  A    between atoms: _94  and  _95
REMARK   41  A    between atoms: _94  and  _97
REMARK   42  A    between atoms: _97  and  _98
REMARK   43  A    between atoms: _101  and  _103
REMARK   44  A    between atoms: _103  and  _104
REMARK   45  A    between atoms: _103  and  _106
REMARK   46  A    between atoms: _106  and  _107
REMARK   47  A    between atoms: _107  and  _108
REMARK   48  A    between atoms: _108  and  _109
REMARK   49  A    between atoms: _109  and  _110
REMARK   50  A    between atoms: _114  and  _116
REMARK   51  A    between atoms: _116  and  _117
REMARK   52  A    between atoms: _116  and  _119
REMARK   53  A    between atoms: _119  and  _120
REMARK   54  A    between atoms: _120  and  _121
REMARK   55  A    between atoms: _123  and  _125
REMARK   56  A    between atoms: _125  and  _126
REMARK   57  A    between atoms: _125  and  _128
REMARK   58  A    between atoms: _131  and  _133
REMARK   59  A    between atoms: _133  and  _134
REMARK   60  A    between atoms: _136  and  _138
REMARK   61  A    between atoms: _138  and  _139
REMARK   62  A    between atoms: _141  and  _143
REMARK   63  A    between atoms: _143  and  _144
REMARK   64  A    between atoms: _143  and  _146
REMARK   65  A    between atoms: _146  and  _147
REMARK   66  A    between atoms: _150  and  _152
REMARK   67  A    between atoms: _152  and  _153
REMARK   68  A    between atoms: _155  and  _157
REMARK   69  A    between atoms: _157  and  _158
REMARK   70  A    between atoms: _160  and  _162
REMARK   71  A    between atoms: _162  and  _163
REMARK   72  A    between atoms: _162  and  _165
REMARK   73  A    between atoms: _165  and  _166
REMARK   74  A    between atoms: _172  and  _174
REMARK   75  A    between atoms: _174  and  _175
REMARK   76  A    between atoms: _174  and  _177
REMARK   77  A    between atoms: _177  and  _178
REMARK   78  A    between atoms: _181  and  _183
REMARK   79  A    between atoms: _183  and  _184
REMARK   80  A    between atoms: _183  and  _186
REMARK   81  A    between atoms: _189  and  _191
REMARK   82  A    between atoms: _191  and  _192
REMARK   83  A    between atoms: _191  and  _194
REMARK   84  A    between atoms: _194  and  _195
REMARK   85  A    between atoms: _198  and  _200
REMARK   86  A    between atoms: _200  and  _201
REMARK   87  A    between atoms: _200  and  _203
REMARK   88  A    between atoms: _203  and  _204
REMARK   89  A    between atoms: _208  and  _209
REMARK   90  A    between atoms: _214  and  _216
REMARK   91  A    between atoms: _216  and  _217
REMARK   92  A    between atoms: _216  and  _219
REMARK   93  A    between atoms: _219  and  _220
REMARK   94  A    between atoms: _223  and  _225
REMARK   95  A    between atoms: _225  and  _226
REMARK   96  A    between atoms: _225  and  _228
REMARK   97  A    between atoms: _228  and  _229
REMARK   98  A    between atoms: _234  and  _236
REMARK   99  A    between atoms: _236  and  _237
REMARK  100  A    between atoms: _236  and  _239
REMARK  101  A    between atoms: _239  and  _240
REMARK  102  A    between atoms: _243  and  _245
REMARK  103  A    between atoms: _245  and  _246
REMARK  104  A    between atoms: _245  and  _248
REMARK  105  A    between atoms: _248  and  _249
REMARK  106  A    between atoms: _252  and  _254
REMARK  107  A    between atoms: _254  and  _255
REMARK  108  A    between atoms: _257  and  _259
REMARK  109  A    between atoms: _259  and  _260
REMARK  110  A    between atoms: _259  and  _262
REMARK  111  A    between atoms: _262  and  _263
REMARK  112  A    between atoms: _263  and  _264
REMARK  113  A    between atoms: _264  and  _265
REMARK  114  A    between atoms: _274  and  _276
REMARK  115  A    between atoms: _276  and  _277
REMARK  116  A    between atoms: _276  and  _279
REMARK  117  A    between atoms: _279  and  _280
REMARK  118  A    between atoms: _285  and  _287
REMARK  119  A    between atoms: _287  and  _288
REMARK  120  A    between atoms: _287  and  _290
REMARK  121  A    between atoms: _290  and  _291
REMARK  122  A    between atoms: _291  and  _292
REMARK  123  A    between atoms: _292  and  _293
REMARK  124  A    between atoms: _302  and  _304
REMARK  125  A    between atoms: _304  and  _305
REMARK  126  A    between atoms: _304  and  _307
REMARK  127  A    between atoms: _307  and  _308
REMARK  128  A    between atoms: _311  and  _313
REMARK  129  A    between atoms: _313  and  _314
REMARK  130  A    between atoms: _313  and  _316
REMARK  131  A    between atoms: _316  and  _317
REMARK  132  A    between atoms: _320  and  _322
REMARK  133  A    between atoms: _322  and  _323
REMARK  134  A    between atoms: _322  and  _325
REMARK  135  A    between atoms: _325  and  _326
REMARK  136  A    between atoms: _329  and  _331
REMARK  137  A    between atoms: _331  and  _332
REMARK  138  A    between atoms: _331  and  _334
REMARK  139  A    between atoms: _334  and  _335
REMARK  140  A    between atoms: _338  and  _340
REMARK  141  A    between atoms: _340  and  _341
REMARK  142  A    between atoms: _343  and  _345
REMARK  143  A    between atoms: _345  and  _346
REMARK  144  A    between atoms: _349  and  _351
REMARK  145  A    between atoms: _351  and  _352
REMARK  146  A    between atoms: _351  and  _354
REMARK  147  A    between atoms: _354  and  _355
REMARK  148  A    between atoms: _358  and  _360
REMARK  149  A    between atoms: _360  and  _361
REMARK  150  A    between atoms: _360  and  _363
REMARK  151  A    between atoms: _363  and  _364
REMARK  152  A    between atoms: _367  and  _369
REMARK  153  A    between atoms: _369  and  _370
REMARK  154  A    between atoms: _369  and  _372
REMARK  155  A    between atoms: _372  and  _373
REMARK  156  A    between atoms: _376  and  _378
REMARK  157  A    between atoms: _378  and  _379
REMARK  158  A    between atoms: _378  and  _381
REMARK  159  A    between atoms: _381  and  _382
REMARK  160  A    between atoms: _385  and  _387
REMARK  161  A    between atoms: _387  and  _388
REMARK  162  A    between atoms: _387  and  _390
REMARK  163  A    between atoms: _390  and  _391
REMARK  164  A    between atoms: _394  and  _396
REMARK  165  A    between atoms: _396  and  _397
REMARK  166  A    between atoms: _396  and  _399
REMARK  167  A    between atoms: _399  and  _400
REMARK  168  A    between atoms: _400  and  _401
REMARK  169  A    between atoms: _401  and  _402
REMARK  170  A    between atoms: _402  and  _403
REMARK  171  A    between atoms: _407  and  _409
REMARK  172  A    between atoms: _409  and  _410
REMARK  173  A    between atoms: _409  and  _412
REMARK  174  A    between atoms: _412  and  _413
REMARK  175  A    between atoms: _413  and  _414
REMARK  176  A    between atoms: _416  and  _418
REMARK  177  A    between atoms: _418  and  _419
REMARK  178  A    between atoms: _418  and  _421
REMARK  179  A    between atoms: _424  and  _426
REMARK  180  A    between atoms: _426  and  _427
REMARK  181  A    between atoms: _429  and  _431
REMARK  182  A    between atoms: _431  and  _432
REMARK  183  A    between atoms: _434  and  _436
REMARK  184  A    between atoms: _436  and  _437
REMARK  185  A    between atoms: _436  and  _439
REMARK  186  A    between atoms: _439  and  _440
REMARK  187  A    between atoms: _443  and  _445
REMARK  188  A    between atoms: _445  and  _446
REMARK  189  A    between atoms: _448  and  _450
REMARK  190  A    between atoms: _450  and  _451
REMARK  191  A    between atoms: _453  and  _455
REMARK  192  A    between atoms: _455  and  _456
REMARK  193  A    between atoms: _455  and  _458
REMARK  194  A    between atoms: _458  and  _459
REMARK  195  A    between atoms: _465  and  _467
REMARK  196  A    between atoms: _467  and  _468
REMARK  197  A    between atoms: _467  and  _470
REMARK  198  A    between atoms: _470  and  _471
REMARK  199  A    between atoms: _474  and  _476
REMARK  200  A    between atoms: _476  and  _477
REMARK  201  A    between atoms: _476  and  _479
REMARK  202  A    between atoms: _479  and  _480
REMARK  203  A    between atoms: _483  and  _485
REMARK  204  A    between atoms: _485  and  _486
REMARK  205  A    between atoms: _485  and  _488
REMARK  206  A    between atoms: _488  and  _489
REMARK  207  A    between atoms: _493  and  _494
REMARK  208  A    between atoms: _499  and  _501
REMARK  209  A    between atoms: _501  and  _502
REMARK  210  A    between atoms: _501  and  _504
REMARK  211  A    between atoms: _504  and  _505
REMARK  212  A    between atoms: _508  and  _510
REMARK  213  A    between atoms: _510  and  _511
REMARK  214  A    between atoms: _510  and  _513
REMARK  215  A    between atoms: _513  and  _514
REMARK  216  A    between atoms: _519  and  _521
REMARK  217  A    between atoms: _521  and  _522
REMARK  218  A    between atoms: _521  and  _524
REMARK  219  A    between atoms: _524  and  _525
REMARK  220  A    between atoms: _528  and  _530
REMARK  221  A    between atoms: _530  and  _531
REMARK  222  A    between atoms: _530  and  _533
REMARK  223  A    between atoms: _533  and  _534
REMARK  224  A    between atoms: _537  and  _539
REMARK  225  A    between atoms: _539  and  _540
REMARK  226  A    between atoms: _542  and  _544
REMARK  227  A    between atoms: _544  and  _545
REMARK  228  A    between atoms: _544  and  _547
REMARK  229  A    between atoms: _547  and  _548
REMARK  230  A    between atoms: _548  and  _549
REMARK  231  A    between atoms: _549  and  _550
REMARK  232  A    between atoms: _559  and  _561
REMARK  233  A    between atoms: _561  and  _562
REMARK  234  A    between atoms: _561  and  _564
REMARK  235  A    between atoms: _564  and  _565
REMARK                            x       y       z     vdW  Elec       q    Type
REMARK                         _______ _______ _______ _____ _____    ______ ____
ROOT
ATOM      1  NE  ARG A   1       7.129  20.627  15.199  0.00  0.00    -0.265 N 
ATOM      2  HE  ARG A   1       7.139  20.383  16.210  0.00  0.00    +0.259 HD
ATOM      3  CZ  ARG A   1       7.867  19.921  14.358  0.00  0.00    +0.342 C 
ATOM      4  NH2 ARG A   1       8.570  18.950  14.889  0.00  0.00    -0.292 N 
ATOM      5 HH21 ARG A   1       8.525  18.775  15.913  0.00  0.00    +0.255 HD
ATOM      6 HH22 ARG A   1       9.173  18.355  14.286  0.00  0.00    +0.255 HD
ATOM      7  NH1 ARG A   1       7.858  20.207  13.078  0.00  0.00    -0.292 N 
ATOM      8 HH11 ARG A   1       7.271  20.989  12.724  0.00  0.00    +0.255 HD
ATOM      9 HH12 ARG A   1       8.438  19.652  12.417  0.00  0.00    +0.255 HD
ENDROOT
BRANCH   1  10
ATOM     10  CD  ARG A   1       6.292  21.751  14.740  0.00  0.00    +0.174 C 
BRANCH  10  11
ATOM     11  CG  ARG A   1       5.533  22.359  15.933  0.00  0.00    +0.045 C 
BRANCH  11  12
ATOM     12  CB  ARG A   1       4.833  23.664  15.556  0.00  0.00    +0.029 C 
BRANCH  12  13
ATOM     13  CA  ARG A   1       4.196  24.391  16.732  0.00  0.00    +0.133 C 
BRANCH  13  14
ATOM     14  N   ARG A   1       3.022  23.666  17.228  0.00  0.00    -0.239 NA
ATOM     15  H   ARG A   1       2.750  22.762  16.791  0.00  0.00    +0.142 HD
ENDBRANCH  13  14
BRANCH  13  16
ATOM     16  C   ARG A   1       3.789  25.799  16.311  0.00  0.00    +0.224 C 
ATOM     17  O   ARG A   1       2.814  25.950  15.603  0.00  0.00    -0.287 OA
ENDBRANCH  13  16
ENDBRANCH  12  13
ENDBRANCH  11  12
ENDBRANCH  10  11
ENDBRANCH   1  10
TORSDOF 6
REMARK  Name = ../refined-set-2016/3s43/3s43_pocket.pdb
REMARK  235 active torsions:
REMARK  status: ('A' for Active; 'I' for Inactive)
REMARK    1  A    between atoms: _1  and  _3
REMARK    2  A    between atoms: _3  and  _4
REMARK    3  A    between atoms: _3  and  _6
REMARK    4  A    between atoms: _6  and  _7
REMARK    5  A    between atoms: _7  and  _8
REMARK    6  A    between atoms: _8  and  _9
REMARK    7  A    between atoms: _18  and  _20
REMARK    8  A    between atoms: _20  and  _21
REMARK    9  A    between atoms: _20  and  _23
REMARK   10  A    between atoms: _23  and  _24
REMARK   11  A    between atoms: _27  and  _29
REMARK   12  A    between atoms: _29  and  _30
REMARK   13  A    between atoms: _29  and  _32
REMARK   14  A    between atoms: _32  and  _33
REMARK   15  A    between atoms: _36  and  _38
REMARK   16  A    between atoms: _38  and  _39
REMARK   17  A    between atoms: _38  and  _41
REMARK   18  A    between atoms: _41  and  _42
REMARK   19  A    between atoms: _45  and  _47
REMARK   20  A    between atoms: _47  and  _48
REMARK   21  A    between atoms: _47  and  _50
REMARK   22  A    between atoms: _50  and  _51
REMARK   23  A    between atoms: _54  and  _56
REMARK   24  A    between atoms: _56  and  _57
REMARK   25  A    between atoms: _59  and  _61
REMARK   26  A    between atoms: _61  and  _62
REMARK   27  A    between atoms: _65  and  _67
REMARK   28  A    between atoms: _67  and  _68
REMARK   29  A    between atoms: _67  and  _70
REMARK   30  A    between atoms: _70  and  _71
REMARK   31  A    between atoms: _74  and  _76
REMARK   32  A    between atoms: _76  and  _77
REMARK   33  A    between atoms: _76  and  _79
REMARK   34  A    between atoms: _79  and  _80
REMARK   35  A    between atoms: _83  and  _85
REMARK   36  A    between atoms: _85  and  _86
REMARK   37  A    between atoms: _85  and  _88
REMARK   38  A    between atoms: _88  and  _89
REMARK   39  A    between atoms: _92  and  _94
REMARK   40  A    between atoms: _94  and  _95
REMARK   41  A    between atoms: _94  and  _97
REMARK   42  A    between atoms: _97  and  _98
REMARK   43  A    between atoms: _101  and  _103
REMARK   44  A    between atoms: _103  and  _104
REMARK   45  A    between atoms: _103  and  _106
REMARK   46  A    between atoms: _106  and  _107
REMARK   47  A    between atoms: _107  and  _108
REMARK   48  A    between atoms: _108  and  _109
REMARK   49  A    between atoms: _109  and  _110
REMARK   50  A    between atoms: _114  and  _116
REMARK   51  A    between atoms: _116  and  _117
REMARK   52  A    between atoms: _116  and  _119
REMARK   53  A    between atoms: _119  and  _120
REMARK   54  A    between atoms: _120  and  _121
REMARK   55  A    between atoms: _123  and  _125
REMARK   56  A    between atoms: _125  and  _126
REMARK   57  A    between atoms: _125  and  _128
REMARK   58  A    between atoms: _131  and  _133
REMARK   59  A    between atoms: _133  and  _134
REMARK   60  A    between atoms: _136  and  _138
REMARK   61  A    between atoms: _138  and  _139
REMARK   62  A    between atoms: _141  and  _143
REMARK   63  A    between atoms: _143  and  _144
REMARK   64  A    between atoms: _143  and  _146
REMARK   65  A    between atoms: _146  and  _147
REMARK   66  A    between atoms: _150  and  _152
REMARK   67  A    between atoms: _152  and  _153
REMARK   68  A    between atoms: _155  and  _157
REMARK   69  A    between atoms: _157  and  _158
REMARK   70  A    between atoms: _160  and  _162
REMARK   71  A    between atoms: _162  and  _163
REMARK   72  A    between atoms: _162  and  _165
REMARK   73  A    between atoms: _165  and  _166
REMARK   74  A    between atoms: _172  and  _174
REMARK   75  A    between atoms: _174  and  _175
REMARK   76  A    between atoms: _174  and  _177
REMARK   77  A    between atoms: _177  and  _178
REMARK   78  A    between atoms: _181  and  _183
REMARK   79  A    between atoms: _183  and  _184
REMARK   80  A    between atoms: _183  and  _186
REMARK   81  A    between atoms: _189  and  _191
REMARK   82  A    between atoms: _191  and  _192
REMARK   83  A    between atoms: _191  and  _194
REMARK   84  A    between atoms: _194  and  _195
REMARK   85  A    between atoms: _198  and  _200
REMARK   86  A    between atoms: _200  and  _201
REMARK   87  A    between atoms: _200  and  _203
REMARK   88  A    between atoms: _203  and  _204
REMARK   89  A    between atoms: _208  and  _209
REMARK   90  A    between atoms: _214  and  _216
REMARK   91  A    between atoms: _216  and  _217
REMARK   92  A    between atoms: _216  and  _219
REMARK   93  A    between atoms: _219  and  _220
REMARK   94  A    between atoms: _223  and  _225
REMARK   95  A    between atoms: _225  and  _226
REMARK   96  A    between atoms: _225  and  _228
REMARK   97  A    between atoms: _228  and  _229
REMARK   98  A    between atoms: _234  and  _236
REMARK   99  A    between atoms: _236  and  _237
REMARK  100  A    between atoms: _236  and  _239
REMARK  101  A    between atoms: _239  and  _240
REMARK  102  A    between atoms: _243  and  _245
REMARK  103  A    between atoms: _245  and  _246
REMARK  104  A    between atoms: _245  and  _248
REMARK  105  A    between atoms: _248  and  _249
REMARK  106  A    between atoms: _252  and  _254
REMARK  107  A    between atoms: _254  and  _255
REMARK  108  A    between atoms: _257  and  _259
REMARK  109  A    between atoms: _259  and  _260
REMARK  110  A    between atoms: _259  and  _262
REMARK  111  A    between atoms: _262  and  _263
REMARK  112  A    between atoms: _263  and  _264
REMARK  113  A    between atoms: _264  and  _265
REMARK  114  A    between atoms: _274  and  _276
REMARK  115  A    between atoms: _276  and  _277
REMARK  116  A    between atoms: _276  and  _279
REMARK  117  A    between atoms: _279  and  _280
REMARK  118  A    between atoms: _285  and  _287
REMARK  119  A    between atoms: _287  and  _288
REMARK  120  A    between atoms: _287  and  _290
REMARK  121  A    between atoms: _290  and  _291
REMARK  122  A    between atoms: _291  and  _292
REMARK  123  A    between atoms: _292  and  _293
REMARK  124  A    between atoms: _302  and  _304
REMARK  125  A    between atoms: _304  and  _305
REMARK  126  A    between atoms: _304  and  _307
REMARK  127  A    between atoms: _307  and  _308
REMARK  128  A    between atoms: _311  and  _313
REMARK  129  A    between atoms: _313  and  _314
REMARK  130  A    between atoms: _313  and  _316
REMARK  131  A    between atoms: _316  and  _317
REMARK  132  A    between atoms: _320  and  _322
REMARK  133  A    between atoms: _322  and  _323
REMARK  134  A    between atoms: _322  and  _325
REMARK  135  A    between atoms: _325  and  _326
REMARK  136  A    between atoms: _329  and  _331
REMARK  137  A    between atoms: _331  and  _332
REMARK  138  A    between atoms: _331  and  _334
REMARK  139  A    between atoms: _334  and  _335
REMARK  140  A    between atoms: _338  and  _340
REMARK  141  A    between atoms: _340  and  _341
REMARK  142  A    between atoms: _343  and  _345
REMARK  143  A    between atoms: _345  and  _346
REMARK  144  A    between atoms: _349  and  _351
REMARK  145  A    between atoms: _351  and  _352
REMARK  146  A    between atoms: _351  and  _354
REMARK  147  A    between atoms: _354  and  _355
REMARK  148  A    between atoms: _358  and  _360
REMARK  149  A    between atoms: _360  and  _361
REMARK  150  A    between atoms: _360  and  _363
REMARK  151  A    between atoms: _363  and  _364
REMARK  152  A    between atoms: _367  and  _369
REMARK  153  A    between atoms: _369  and  _370
REMARK  154  A    between atoms: _369  and  _372
REMARK  155  A    between atoms: _372  and  _373
REMARK  156  A    between atoms: _376  and  _378
REMARK  157  A    between atoms: _378  and  _379
REMARK  158  A    between atoms: _378  and  _381
REMARK  159  A    between atoms: _381  and  _382
REMARK  160  A    between atoms: _385  and  _387
REMARK  161  A    between atoms: _387  and  _388
REMARK  162  A    between atoms: _387  and  _390
REMARK  163  A    between atoms: _390  and  _391
REMARK  164  A    between atoms: _394  and  _396
REMARK  165  A    between atoms: _396  and  _397
REMARK  166  A    between atoms: _396  and  _399
REMARK  167  A    between atoms: _399  and  _400
REMARK  168  A    between atoms: _400  and  _401
REMARK  169  A    between atoms: _401  and  _402
REMARK  170  A    between atoms: _402  and  _403
REMARK  171  A    between atoms: _407  and  _409
REMARK  172  A    between atoms: _409  and  _410
REMARK  173  A    between atoms: _409  and  _412
REMARK  174  A    between atoms: _412  and  _413
REMARK  175  A    between atoms: _413  and  _414
REMARK  176  A    between atoms: _416  and  _418
REMARK  177  A    between atoms: _418  and  _419
REMARK  178  A    between atoms: _418  and  _421
REMARK  179  A    between atoms: _424  and  _426
REMARK  180  A    between atoms: _426  and  _427
REMARK  181  A    between atoms: _429  and  _431
REMARK  182  A    between atoms: _431  and  _432
REMARK  183  A    between atoms: _434  and  _436
REMARK  184  A    between atoms: _436  and  _437
REMARK  185  A    between atoms: _436  and  _439
REMARK  186  A    between atoms: _439  and  _440
REMARK  187  A    between atoms: _443  and  _445
REMARK  188  A    between atoms: _445  and  _446
REMARK  189  A    between atoms: _448  and  _450
REMARK  190  A    between atoms: _450  and  _451
REMARK  191  A    between atoms: _453  and  _455
REMARK  192  A    between atoms: _455  and  _456
REMARK  193  A    between atoms: _455  and  _458
REMARK  194  A    between atoms: _458  and  _459
REMARK  195  A    between atoms: _465  and  _467
REMARK  196  A    between atoms: _467  and  _468
REMARK  197  A    between atoms: _467  and  _470
REMARK  198  A    between atoms: _470  and  _471
REMARK  199  A    between atoms: _474  and  _476
REMARK  200  A    between atoms: _476  and  _477
REMARK  201  A    between atoms: _476  and  _479
REMARK  202  A    between atoms: _479  and  _480
REMARK  203  A    between atoms: _483  and  _485
REMARK  204  A    between atoms: _485  and  _486
REMARK  205  A    between atoms: _485  and  _488
REMARK  206  A    between atoms: _488  and  _489
REMARK  207  A    between atoms: _493  and  _494
REMARK  208  A    between atoms: _499  and  _501
REMARK  209  A    between atoms: _501  and  _502
REMARK  210  A    between atoms: _501  and  _504
REMARK  211  A    between atoms: _504  and  _505
REMARK  212  A    between atoms: _508  and  _510
REMARK  213  A    between atoms: _510  and  _511
REMARK  214  A    between atoms: _510  and  _513
REMARK  215  A    between atoms: _513  and  _514
REMARK  216  A    between atoms: _519  and  _521
REMARK  217  A    between atoms: _521  and  _522
REMARK  218  A    between atoms: _521  and  _524
REMARK  219  A    between atoms: _524  and  _525
REMARK  220  A    between atoms: _528  and  _530
REMARK  221  A    between atoms: _530  and  _531
REMARK  222  A    between atoms: _530  and  _533
REMARK  223  A    between atoms: _533  and  _534
REMARK  224  A    between atoms: _537  and  _539
REMARK  225  A    between atoms: _539  and  _540
REMARK  226  A    between atoms: _542  and  _544
REMARK  227  A    between atoms: _544  and  _545
REMARK  228  A    between atoms: _544  and  _547
REMARK  229  A    between atoms: _547  and  _548
REMARK  230  A    between atoms: _548  and  _549
REMARK  231  A    between atoms: _549  and  _550
REMARK  232  A    between atoms: _559  and  _561
REMARK  233  A    between atoms: _561  and  _562
REMARK  234  A    between atoms: _561  and  _564
REMARK  235  A    between atoms: _564  and  _565
REMARK                            x       y       z     vdW  Elec       q    Type
REMARK                         _______ _______ _______ _____ _____    ______ ____
ROOT
ATOM      1  C   GLY A   5      16.985  28.310  19.866  0.00  0.00    +0.243 C 
ATOM      2  O   GLY A   5      18.075  27.709  20.020  0.00  0.00    -0.273 OA
ATOM      3  N   ALA A   6      16.724  29.008  18.764  0.00  0.00    -0.297 N 
ATOM      4  H   ALA A   6      15.806  29.493  18.702  0.00  0.00    +0.150 HD
ENDROOT
BRANCH   3   5
ATOM      5  CA  ALA A   6      17.635  29.136  17.646  0.00  0.00    +0.149 C 
ATOM      6  CB  ALA A   6      16.878  28.977  16.338  0.00  0.00    +0.031 C 
BRANCH   5   7
ATOM      7  C   ALA A   6      18.326  30.491  17.651  0.00  0.00    +0.241 C 
ATOM      8  O   ALA A   6      17.624  31.529  17.635  0.00  0.00    -0.273 OA
ATOM      9  N   ASP A   7      19.639  30.513  17.622  0.00  0.00    -0.297 N 
ATOM     10  H   ASP A   7      20.183  29.627  17.615  0.00  0.00    +0.150 HD
BRANCH   9  11
ATOM     11  CA  ASP A   7      20.315  31.790  17.600  0.00  0.00    +0.160 C 
BRANCH  11  12
ATOM     12  C   ASP A   7      20.080  32.538  16.281  0.00  0.00    +0.241 C 
ATOM     13  O   ASP A   7      19.916  33.786  16.276  0.00  0.00    -0.273 OA
ATOM     14  N   ASP A   8      20.081  31.798  15.185  0.00  0.00    -0.297 N 
ATOM     15  H   ASP A   8      20.159  30.763  15.252  0.00  0.00    +0.150 HD
BRANCH  14  16
ATOM     16  CA  ASP A   8      19.971  32.446  13.876  0.00  0.00    +0.160 C 
BRANCH  16  17
ATOM     17  C   ASP A   8      19.002  31.676  12.980  0.00  0.00    +0.241 C 
ATOM     18  O   ASP A   8      18.713  30.491  13.060  0.00  0.00    -0.273 OA
ATOM     19  N   THR A   9      18.461  32.411  12.044  0.00  0.00    -0.295 N 
ATOM     20  H   THR A   9      18.800  33.391  11.967  0.00  0.00    +0.150 HD
BRANCH  19  21
ATOM     21  CA  THR A   9      17.443  32.004  11.108  0.00  0.00    +0.176 C 
BRANCH  21  22
ATOM     22  C   THR A   9      18.023  31.082  10.055  0.00  0.00    +0.243 C 
ATOM     23  N   ILE A  10      17.327  29.978   9.803  0.00  0.00    -0.298 N 
ATOM     24  H   ILE A  10      16.449  29.790  10.328  0.00  0.00    +0.150 HD
ATOM     25  O   THR A   9      19.083  31.383   9.496  0.00  0.00    -0.273 OA
BRANCH  23  26
ATOM     26  CA  ILE A  10      17.787  29.023   8.791  0.00  0.00    +0.137 C 
BRANCH  26  27
ATOM     27  C   ILE A  10      16.596  28.610   7.937  0.00  0.00    +0.227 C 
ATOM     28  O   ILE A  10      15.557  28.213   8.425  0.00  0.00    -0.286 OA
ENDBRANCH  26  27
BRANCH  26  29
ATOM     29  CB  ILE A  10      18.511  27.826   9.427  0.00  0.00    +0.026 C 
ATOM     30  CG2 ILE A  10      17.664  27.096  10.447  0.00  0.00    +0.002 C 
BRANCH  29  31
ATOM     31  CG1 ILE A  10      19.099  26.886   8.370  0.00  0.00    +0.002 C 
ATOM     32  CD1 ILE A  10      20.027  25.849   8.982  0.00  0.00    +0.000 C 
ENDBRANCH  29  31
ENDBRANCH  26  29
ENDBRANCH  23  26
ENDBRANCH  21  22
BRANCH  21  33
ATOM     33  CB  THR A   9      16.866  33.309  10.507  0.00  0.00    +0.137 C 
ATOM     34  CG2 THR A   9      15.889  33.012   9.415  0.00  0.00    +0.034 C 
BRANCH  33  35
ATOM     35  OG1 THR A   9      16.189  34.019  11.579  0.00  0.00    -0.382 OA
ATOM     36  HG1 THR A   9      16.838  34.225  12.298  0.00  0.00    +0.210 HD
ENDBRANCH  33  35
ENDBRANCH  21  33
ENDBRANCH  19  21
ENDBRANCH  16  17
BRANCH  16  37
ATOM     37  CB  ASP A   8      21.348  32.573  13.213  0.00  0.00    +0.143 C 
BRANCH  37  38
ATOM     38  CG  ASP A   8      22.304  33.550  13.873  0.00  0.00    +0.367 C 
ATOM     39  OD2 ASP A   8      23.310  33.088  14.446  0.00  0.00    -0.246 OA
ATOM     40  OD1 ASP A   8      22.020  34.773  13.786  0.00  0.00    -0.246 OA
ENDBRANCH  37  38
ENDBRANCH  16  37
ENDBRANCH  14  16
ENDBRANCH  11  12
BRANCH  11  41
ATOM     41  CB  ASP A   7      21.813  31.627  17.801  0.00  0.00    +0.143 C 
BRANCH  41  42
ATOM     42  CG  ASP A   7      22.228  31.084  19.151  0.00  0.00    +0.367 C 
ATOM     43  OD2 ASP A   7      21.548  31.149  20.184  0.00  0.00    -0.246 OA
ATOM     44  OD1 ASP A   7      23.349  30.523  19.211  0.00  0.00    -0.246 OA
ENDBRANCH  41  42
ENDBRANCH  11  41
ENDBRANCH   9  11
ENDBRANCH   5   7
ENDBRANCH   3   5
BRANCH   1  45
ATOM     45  CA  GLY A   5      15.942  28.228  20.946  0.00  0.00    +0.176 C 
BRANCH  45  48
ATOM     46  C   THR A   4      14.692  30.329  21.009  0.00  0.00    +0.243 C 
ATOM     47  O   THR A   4      15.616  30.958  21.537  0.00  0.00    -0.273 OA
ATOM     48  N   GLY A   5      14.757  29.031  20.705  0.00  0.00    -0.295 N 
ATOM     49  H   GLY A   5      13.925  28.576  20.278  0.00  0.00    +0.150 HD
BRANCH  46  50
ATOM     50  CA  THR A   4      13.392  31.079  20.665  0.00  0.00    +0.176 C 
BRANCH  50  52
ATOM     51  C   ASP A   3      13.000  30.246  18.420  0.00  0.00    +0.241 C 
ATOM     52  N   THR A   4      12.576  30.380  19.680  0.00  0.00    -0.295 N 
ATOM     53  H   THR A   4      11.657  29.983  19.960  0.00  0.00    +0.150 HD
ATOM     54  O   ASP A   3      14.077  30.691  18.056  0.00  0.00    -0.273 OA
BRANCH  51  55
ATOM     55  CA  ASP A   3      12.080  29.465  17.518  0.00  0.00    +0.160 C 
BRANCH  55  58
ATOM     56  C   LEU A   2       9.970  30.255  16.625  0.00  0.00    +0.241 C 
ATOM     57  O   LEU A   2       9.329  29.571  17.451  0.00  0.00    -0.273 OA
ATOM     58  N   ASP A   3      11.276  30.356  16.659  0.00  0.00    -0.297 N 
ATOM     59  H   ASP A   3      11.752  31.072  16.074  0.00  0.00    +0.150 HD
BRANCH  56  60
ATOM     60  CA  LEU A   2       9.226  30.907  15.492  0.00  0.00    +0.149 C 
BRANCH  60  62
ATOM     61  C   LEU A   1       9.414  29.232  13.695  0.00  0.00    +0.238 C 
ATOM     62  N   LEU A   2       8.671  29.836  14.619  0.00  0.00    -0.297 N 
ATOM     63  H   LEU A   2       7.677  29.553  14.734  0.00  0.00    +0.150 HD
ATOM     64  O   LEU A   1      10.573  29.571  13.436  0.00  0.00    -0.274 OA
BRANCH  61  65
ATOM     65  CA  LEU A   1       8.800  28.057  12.943  0.00  0.00    +0.145 C 
BRANCH  65  66
ATOM     66  N   LEU A   1       8.932  28.228  11.508  0.00  0.00    -0.238 NA
ATOM     67  H   LEU A   1       9.767  27.815  11.046  0.00  0.00    +0.142 HD
ENDBRANCH  65  66
BRANCH  65  68
ATOM     68  CB  LEU A   1       9.513  26.759  13.284  0.00  0.00    +0.026 C 
BRANCH  68  69
ATOM     69  CG  LEU A   1       9.525  26.208  14.690  0.00  0.00    +0.002 C 
ATOM     70  CD2 LEU A   1       8.118  25.816  15.082  0.00  0.00    +0.000 C 
ATOM     71  CD1 LEU A   1      10.478  25.043  14.785  0.00  0.00    +0.000 C 
ENDBRANCH  68  69
ENDBRANCH  65  68
ENDBRANCH  61  65
ENDBRANCH  60  62
BRANCH  60  72
ATOM     72  CB  LEU A   2       8.073  31.754  16.007  0.00  0.00    +0.029 C 
BRANCH  72  73
ATOM     73  CG  LEU A   2       7.255  32.532  14.996  0.00  0.00    +0.002 C 
ATOM     74  CD2 LEU A   2       6.241  33.337  15.791  0.00  0.00    +0.000 C 
ATOM     75  CD1 LEU A   2       8.153  33.415  14.184  0.00  0.00    +0.000 C 
ENDBRANCH  72  73
ENDBRANCH  60  72
ENDBRANCH  56  60
ENDBRANCH  55  58
BRANCH  55  76
ATOM     76  CB  ASP A   3      12.866  28.523  16.625  0.00  0.00    +0.143 C 
BRANCH  76  77
ATOM     77  CG  ASP A   3      13.536  27.415  17.401  0.00  0.00    +0.367 C 
ATOM     78  OD2 ASP A   3      13.500  27.503  18.662  0.00  0.00    -0.246 OA
ATOM     79  OD1 ASP A   3      14.104  26.502  16.752  0.00  0.00    -0.246 OA
ENDBRANCH  76  77
ENDBRANCH  55  76
ENDBRANCH  51  55
ENDBRANCH  50  52
BRANCH  50  80
ATOM     80  CB  THR A   4      12.610  31.321  21.953  0.00  0.00    +0.137 C 
ATOM     81  CG2 THR A   4      11.384  32.168  21.668  0.00  0.00    +0.034 C 
BRANCH  80  82
ATOM     82  OG1 THR A   4      12.190  30.049  22.516  0.00  0.00    -0.382 OA
ATOM     83  HG1 THR A   4      12.988  29.498  22.714  0.00  0.00    +0.210 HD
ENDBRANCH  80  82
ENDBRANCH  50  80
ENDBRANCH  46  50
ENDBRANCH  45  48
ENDBRANCH   1  45
TORSDOF 36
REMARK  Name = ../refined-set-2016/3s43/3s43_pocket.pdb
REMARK  235 active torsions:
REMARK  status: ('A' for Active; 'I' for Inactive)
REMARK    1  A    between atoms: _1  and  _3
REMARK    2  A    between atoms: _3  and  _4
REMARK    3  A    between atoms: _3  and  _6
REMARK    4  A    between atoms: _6  and  _7
REMARK    5  A    between atoms: _7  and  _8
REMARK    6  A    between atoms: _8  and  _9
REMARK    7  A    between atoms: _18  and  _20
REMARK    8  A    between atoms: _20  and  _21
REMARK    9  A    between atoms: _20  and  _23
REMARK   10  A    between atoms: _23  and  _24
REMARK   11  A    between atoms: _27  and  _29
REMARK   12  A    between atoms: _29  and  _30
REMARK   13  A    between atoms: _29  and  _32
REMARK   14  A    between atoms: _32  and  _33
REMARK   15  A    between atoms: _36  and  _38
REMARK   16  A    between atoms: _38  and  _39
REMARK   17  A    between atoms: _38  and  _41
REMARK   18  A    between atoms: _41  and  _42
REMARK   19  A    between atoms: _45  and  _47
REMARK   20  A    between atoms: _47  and  _48
REMARK   21  A    between atoms: _47  and  _50
REMARK   22  A    between atoms: _50  and  _51
REMARK   23  A    between atoms: _54  and  _56
REMARK   24  A    between atoms: _56  and  _57
REMARK   25  A    between atoms: _59  and  _61
REMARK   26  A    between atoms: _61  and  _62
REMARK   27  A    between atoms: _65  and  _67
REMARK   28  A    between atoms: _67  and  _68
REMARK   29  A    between atoms: _67  and  _70
REMARK   30  A    between atoms: _70  and  _71
REMARK   31  A    between atoms: _74  and  _76
REMARK   32  A    between atoms: _76  and  _77
REMARK   33  A    between atoms: _76  and  _79
REMARK   34  A    between atoms: _79  and  _80
REMARK   35  A    between atoms: _83  and  _85
REMARK   36  A    between atoms: _85  and  _86
REMARK   37  A    between atoms: _85  and  _88
REMARK   38  A    between atoms: _88  and  _89
REMARK   39  A    between atoms: _92  and  _94
REMARK   40  A    between atoms: _94  and  _95
REMARK   41  A    between atoms: _94  and  _97
REMARK   42  A    between atoms: _97  and  _98
REMARK   43  A    between atoms: _101  and  _103
REMARK   44  A    between atoms: _103  and  _104
REMARK   45  A    between atoms: _103  and  _106
REMARK   46  A    between atoms: _106  and  _107
REMARK   47  A    between atoms: _107  and  _108
REMARK   48  A    between atoms: _108  and  _109
REMARK   49  A    between atoms: _109  and  _110
REMARK   50  A    between atoms: _114  and  _116
REMARK   51  A    between atoms: _116  and  _117
REMARK   52  A    between atoms: _116  and  _119
REMARK   53  A    between atoms: _119  and  _120
REMARK   54  A    between atoms: _120  and  _121
REMARK   55  A    between atoms: _123  and  _125
REMARK   56  A    between atoms: _125  and  _126
REMARK   57  A    between atoms: _125  and  _128
REMARK   58  A    between atoms: _131  and  _133
REMARK   59  A    between atoms: _133  and  _134
REMARK   60  A    between atoms: _136  and  _138
REMARK   61  A    between atoms: _138  and  _139
REMARK   62  A    between atoms: _141  and  _143
REMARK   63  A    between atoms: _143  and  _144
REMARK   64  A    between atoms: _143  and  _146
REMARK   65  A    between atoms: _146  and  _147
REMARK   66  A    between atoms: _150  and  _152
REMARK   67  A    between atoms: _152  and  _153
REMARK   68  A    between atoms: _155  and  _157
REMARK   69  A    between atoms: _157  and  _158
REMARK   70  A    between atoms: _160  and  _162
REMARK   71  A    between atoms: _162  and  _163
REMARK   72  A    between atoms: _162  and  _165
REMARK   73  A    between atoms: _165  and  _166
REMARK   74  A    between atoms: _172  and  _174
REMARK   75  A    between atoms: _174  and  _175
REMARK   76  A    between atoms: _174  and  _177
REMARK   77  A    between atoms: _177  and  _178
REMARK   78  A    between atoms: _181  and  _183
REMARK   79  A    between atoms: _183  and  _184
REMARK   80  A    between atoms: _183  and  _186
REMARK   81  A    between atoms: _189  and  _191
REMARK   82  A    between atoms: _191  and  _192
REMARK   83  A    between atoms: _191  and  _194
REMARK   84  A    between atoms: _194  and  _195
REMARK   85  A    between atoms: _198  and  _200
REMARK   86  A    between atoms: _200  and  _201
REMARK   87  A    between atoms: _200  and  _203
REMARK   88  A    between atoms: _203  and  _204
REMARK   89  A    between atoms: _208  and  _209
REMARK   90  A    between atoms: _214  and  _216
REMARK   91  A    between atoms: _216  and  _217
REMARK   92  A    between atoms: _216  and  _219
REMARK   93  A    between atoms: _219  and  _220
REMARK   94  A    between atoms: _223  and  _225
REMARK   95  A    between atoms: _225  and  _226
REMARK   96  A    between atoms: _225  and  _228
REMARK   97  A    between atoms: _228  and  _229
REMARK   98  A    between atoms: _234  and  _236
REMARK   99  A    between atoms: _236  and  _237
REMARK  100  A    between atoms: _236  and  _239
REMARK  101  A    between atoms: _239  and  _240
REMARK  102  A    between atoms: _243  and  _245
REMARK  103  A    between atoms: _245  and  _246
REMARK  104  A    between atoms: _245  and  _248
REMARK  105  A    between atoms: _248  and  _249
REMARK  106  A    between atoms: _252  and  _254
REMARK  107  A    between atoms: _254  and  _255
REMARK  108  A    between atoms: _257  and  _259
REMARK  109  A    between atoms: _259  and  _260
REMARK  110  A    between atoms: _259  and  _262
REMARK  111  A    between atoms: _262  and  _263
REMARK  112  A    between atoms: _263  and  _264
REMARK  113  A    between atoms: _264  and  _265
REMARK  114  A    between atoms: _274  and  _276
REMARK  115  A    between atoms: _276  and  _277
REMARK  116  A    between atoms: _276  and  _279
REMARK  117  A    between atoms: _279  and  _280
REMARK  118  A    between atoms: _285  and  _287
REMARK  119  A    between atoms: _287  and  _288
REMARK  120  A    between atoms: _287  and  _290
REMARK  121  A    between atoms: _290  and  _291
REMARK  122  A    between atoms: _291  and  _292
REMARK  123  A    between atoms: _292  and  _293
REMARK  124  A    between atoms: _302  and  _304
REMARK  125  A    between atoms: _304  and  _305
REMARK  126  A    between atoms: _304  and  _307
REMARK  127  A    between atoms: _307  and  _308
REMARK  128  A    between atoms: _311  and  _313
REMARK  129  A    between atoms: _313  and  _314
REMARK  130  A    between atoms: _313  and  _316
REMARK  131  A    between atoms: _316  and  _317
REMARK  132  A    between atoms: _320  and  _322
REMARK  133  A    between atoms: _322  and  _323
REMARK  134  A    between atoms: _322  and  _325
REMARK  135  A    between atoms: _325  and  _326
REMARK  136  A    between atoms: _329  and  _331
REMARK  137  A    between atoms: _331  and  _332
REMARK  138  A    between atoms: _331  and  _334
REMARK  139  A    between atoms: _334  and  _335
REMARK  140  A    between atoms: _338  and  _340
REMARK  141  A    between atoms: _340  and  _341
REMARK  142  A    between atoms: _343  and  _345
REMARK  143  A    between atoms: _345  and  _346
REMARK  144  A    between atoms: _349  and  _351
REMARK  145  A    between atoms: _351  and  _352
REMARK  146  A    between atoms: _351  and  _354
REMARK  147  A    between atoms: _354  and  _355
REMARK  148  A    between atoms: _358  and  _360
REMARK  149  A    between atoms: _360  and  _361
REMARK  150  A    between atoms: _360  and  _363
REMARK  151  A    between atoms: _363  and  _364
REMARK  152  A    between atoms: _367  and  _369
REMARK  153  A    between atoms: _369  and  _370
REMARK  154  A    between atoms: _369  and  _372
REMARK  155  A    between atoms: _372  and  _373
REMARK  156  A    between atoms: _376  and  _378
REMARK  157  A    between atoms: _378  and  _379
REMARK  158  A    between atoms: _378  and  _381
REMARK  159  A    between atoms: _381  and  _382
REMARK  160  A    between atoms: _385  and  _387
REMARK  161  A    between atoms: _387  and  _388
REMARK  162  A    between atoms: _387  and  _390
REMARK  163  A    between atoms: _390  and  _391
REMARK  164  A    between atoms: _394  and  _396
REMARK  165  A    between atoms: _396  and  _397
REMARK  166  A    between atoms: _396  and  _399
REMARK  167  A    between atoms: _399  and  _400
REMARK  168  A    between atoms: _400  and  _401
REMARK  169  A    between atoms: _401  and  _402
REMARK  170  A    between atoms: _402  and  _403
REMARK  171  A    between atoms: _407  and  _409
REMARK  172  A    between atoms: _409  and  _410
REMARK  173  A    between atoms: _409  and  _412
REMARK  174  A    between atoms: _412  and  _413
REMARK  175  A    between atoms: _413  and  _414
REMARK  176  A    between atoms: _416  and  _418
REMARK  177  A    between atoms: _418  and  _419
REMARK  178  A    between atoms: _418  and  _421
REMARK  179  A    between atoms: _424  and  _426
REMARK  180  A    between atoms: _426  and  _427
REMARK  181  A    between atoms: _429  and  _431
REMARK  182  A    between atoms: _431  and  _432
REMARK  183  A    between atoms: _434  and  _436
REMARK  184  A    between atoms: _436  and  _437
REMARK  185  A    between atoms: _436  and  _439
REMARK  186  A    between atoms: _439  and  _440
REMARK  187  A    between atoms: _443  and  _445
REMARK  188  A    between atoms: _445  and  _446
REMARK  189  A    between atoms: _448  and  _450
REMARK  190  A    between atoms: _450  and  _451
REMARK  191  A    between atoms: _453  and  _455
REMARK  192  A    between atoms: _455  and  _456
REMARK  193  A    between atoms: _455  and  _458
REMARK  194  A    between atoms: _458  and  _459
REMARK  195  A    between atoms: _465  and  _467
REMARK  196  A    between atoms: _467  and  _468
REMARK  197  A    between atoms: _467  and  _470
REMARK  198  A    between atoms: _470  and  _471
REMARK  199  A    between atoms: _474  and  _476
REMARK  200  A    between atoms: _476  and  _477
REMARK  201  A    between atoms: _476  and  _479
REMARK  202  A    between atoms: _479  and  _480
REMARK  203  A    between atoms: _483  and  _485
REMARK  204  A    between atoms: _485  and  _486
REMARK  205  A    between atoms: _485  and  _488
REMARK  206  A    between atoms: _488  and  _489
REMARK  207  A    between atoms: _493  and  _494
REMARK  208  A    between atoms: _499  and  _501
REMARK  209  A    between atoms: _501  and  _502
REMARK  210  A    between atoms: _501  and  _504
REMARK  211  A    between atoms: _504  and  _505
REMARK  212  A    between atoms: _508  and  _510
REMARK  213  A    between atoms: _510  and  _511
REMARK  214  A    between atoms: _510  and  _513
REMARK  215  A    between atoms: _513  and  _514
REMARK  216  A    between atoms: _519  and  _521
REMARK  217  A    between atoms: _521  and  _522
REMARK  218  A    between atoms: _521  and  _524
REMARK  219  A    between atoms: _524  and  _525
REMARK  220  A    between atoms: _528  and  _530
REMARK  221  A    between atoms: _530  and  _531
REMARK  222  A    between atoms: _530  and  _533
REMARK  223  A    between atoms: _533  and  _534
REMARK  224  A    between atoms: _537  and  _539
REMARK  225  A    between atoms: _539  and  _540
REMARK  226  A    between atoms: _542  and  _544
REMARK  227  A    between atoms: _544  and  _545
REMARK  228  A    between atoms: _544  and  _547
REMARK  229  A    between atoms: _547  and  _548
REMARK  230  A    between atoms: _548  and  _549
REMARK  231  A    between atoms: _549  and  _550
REMARK  232  A    between atoms: _559  and  _561
REMARK  233  A    between atoms: _561  and  _562
REMARK  234  A    between atoms: _561  and  _564
REMARK  235  A    between atoms: _564  and  _565
REMARK                            x       y       z     vdW  Elec       q    Type
REMARK                         _______ _______ _______ _____ _____    ______ ____
ROOT
ATOM      1  C   GLY A   5      21.853  19.290  17.653  0.00  0.00    +0.243 C 
ATOM      2  N   ILE A   6      20.597  19.008  17.973  0.00  0.00    -0.297 N 
ATOM      3  H   ILE A   6      19.882  19.749  18.119  0.00  0.00    +0.150 HD
ATOM      4  O   GLY A   5      22.746  18.471  17.487  0.00  0.00    -0.273 OA
ENDROOT
BRANCH   1   5
ATOM      5  CA  GLY A   5      22.178  20.744  17.507  0.00  0.00    +0.176 C 
BRANCH   5   8
ATOM      6  C   GLY A   4      23.458  22.156  16.015  0.00  0.00    +0.243 C 
ATOM      7  O   GLY A   4      23.091  23.217  16.503  0.00  0.00    -0.273 OA
ATOM      8  N   GLY A   5      23.079  20.971  16.421  0.00  0.00    -0.295 N 
ATOM      9  H   GLY A   5      23.458  20.141  15.921  0.00  0.00    +0.150 HD
BRANCH   6  10
ATOM     10  CA  GLY A   4      24.449  22.093  14.884  0.00  0.00    +0.176 C 
BRANCH  10  12
ATOM     11  C   VAL A   3      24.977  23.538  13.094  0.00  0.00    +0.241 C 
ATOM     12  N   GLY A   4      24.792  23.451  14.427  0.00  0.00    -0.295 N 
ATOM     13  H   GLY A   4      24.883  24.263  15.070  0.00  0.00    +0.150 HD
ATOM     14  O   VAL A   3      24.783  22.601  12.344  0.00  0.00    -0.273 OA
BRANCH  11  15
ATOM     15  CA  VAL A   3      25.414  24.904  12.579  0.00  0.00    +0.149 C 
BRANCH  15  18
ATOM     16  C   MET A   2      27.510  25.312  11.400  0.00  0.00    +0.241 C 
ATOM     17  O   MET A   2      27.924  26.164  12.213  0.00  0.00    -0.273 OA
ATOM     18  N   VAL A   3      26.330  24.704  11.445  0.00  0.00    -0.297 N 
ATOM     19  H   VAL A   3      26.049  24.076  10.665  0.00  0.00    +0.150 HD
BRANCH  16  20
ATOM     20  CA  MET A   2      28.451  24.950  10.259  0.00  0.00    +0.149 C 
BRANCH  20  22
ATOM     21  C   LYS A   1      28.598  26.615   8.476  0.00  0.00    +0.238 C 
ATOM     22  N   MET A   2      28.942  26.194   9.689  0.00  0.00    -0.297 N 
ATOM     23  H   MET A   2      29.590  26.779  10.254  0.00  0.00    +0.150 HD
ATOM     24  O   LYS A   1      27.887  25.964   7.694  0.00  0.00    -0.274 OA
BRANCH  21  25
ATOM     25  CA  LYS A   1      29.081  28.008   8.086  0.00  0.00    +0.145 C 
BRANCH  25  26
ATOM     26  N   LYS A   1      29.201  28.092   6.631  0.00  0.00    -0.238 NA
ATOM     27  H   LYS A   1      28.547  27.527   6.053  0.00  0.00    +0.142 HD
ENDBRANCH  25  26
BRANCH  25  28
ATOM     28  CB  LYS A   1      28.046  29.037   8.576  0.00  0.00    +0.026 C 
BRANCH  28  29
ATOM     29  CG  LYS A   1      27.920  29.261  10.041  0.00  0.00    -0.000 C 
BRANCH  29  30
ATOM     30  CD  LYS A   1      26.946  30.375  10.380  0.00  0.00    -0.024 C 
BRANCH  30  31
ATOM     31  CE  LYS A   1      26.662  30.452  11.858  0.00  0.00    -0.086 C 
BRANCH  31  32
ATOM     32  NZ  LYS A   1      27.708  31.132  12.638  0.00  0.00    +0.380 N 
ATOM     33  HZ1 LYS A   1      27.438  31.143  13.642  0.00  0.00    -0.089 HD
ATOM     34  HZ2 LYS A   1      28.608  30.624  12.525  0.00  0.00    -0.089 HD
ATOM     35  HZ3 LYS A   1      27.815  32.108  12.296  0.00  0.00    -0.089 HD
ENDBRANCH  31  32
ENDBRANCH  30  31
ENDBRANCH  29  30
ENDBRANCH  28  29
ENDBRANCH  25  28
ENDBRANCH  21  25
ENDBRANCH  20  22
BRANCH  20  36
ATOM     36  CB  MET A   2      29.582  24.056  10.799  0.00  0.00    +0.041 C 
BRANCH  36  37
ATOM     37  CG  MET A   2      30.465  23.519   9.662  0.00  0.00    +0.060 C 
BRANCH  37  38
ATOM     38  SD  MET A   2      29.591  22.146   8.875  0.00  0.00    -0.139 S 
ATOM     39  CE  MET A   2      30.222  20.876  10.005  0.00  0.00    +0.069 C 
ENDBRANCH  37  38
ENDBRANCH  36  37
ENDBRANCH  20  36
ENDBRANCH  16  20
ENDBRANCH  15  18
BRANCH  15  40
ATOM     40  CB  VAL A   3      24.216  25.756  12.265  0.00  0.00    +0.027 C 
ATOM     41  CG2 VAL A   3      24.671  27.179  11.929  0.00  0.00    +0.002 C 
ATOM     42  CG1 VAL A   3      23.480  25.193  11.094  0.00  0.00    +0.002 C 
ENDBRANCH  15  40
ENDBRANCH  11  15
ENDBRANCH  10  12
ENDBRANCH   6  10
ENDBRANCH   5   8
ENDBRANCH   1   5
BRANCH   2  43
ATOM     43  CA  ILE A   6      20.283  17.576  18.107  0.00  0.00    +0.149 C 
BRANCH  43  44
ATOM     44  C   ILE A   6      20.561  16.878  16.787  0.00  0.00    +0.241 C 
ATOM     45  N   GLY A   7      21.299  15.773  16.814  0.00  0.00    -0.295 N 
ATOM     46  H   GLY A   7      21.637  15.473  17.751  0.00  0.00    +0.150 HD
ATOM     47  O   ILE A   6      20.095  17.364  15.753  0.00  0.00    -0.273 OA
BRANCH  45  48
ATOM     48  CA  GLY A   7      21.685  14.946  15.715  0.00  0.00    +0.176 C 
BRANCH  48  49
ATOM     49  C   GLY A   7      22.914  15.434  14.988  0.00  0.00    +0.243 C 
ATOM     50  N   GLY A   8      23.562  16.447  15.513  0.00  0.00    -0.295 N 
ATOM     51  H   GLY A   8      23.184  16.899  16.370  0.00  0.00    +0.150 HD
ATOM     52  O   GLY A   7      23.232  14.895  13.942  0.00  0.00    -0.273 OA
BRANCH  50  53
ATOM     53  CA  GLY A   8      24.794  16.956  14.931  0.00  0.00    +0.176 C 
BRANCH  53  54
ATOM     54  C   GLY A   8      24.704  18.232  14.123  0.00  0.00    +0.243 C 
ATOM     55  O   GLY A   8      23.773  19.038  14.292  0.00  0.00    -0.273 OA
ATOM     56  N   PHE A   9      25.691  18.452  13.247  0.00  0.00    -0.297 N 
ATOM     57  H   PHE A   9      26.400  17.701  13.122  0.00  0.00    +0.150 HD
BRANCH  56  58
ATOM     58  CA  PHE A   9      25.845  19.643  12.469  0.00  0.00    +0.153 C 
BRANCH  58  59
ATOM     59  C   PHE A   9      25.487  19.478  11.006  0.00  0.00    +0.241 C 
ATOM     60  O   PHE A   9      25.609  18.377  10.445  0.00  0.00    -0.273 OA
ATOM     61  N   ILE A  10      25.102  20.591  10.399  0.00  0.00    -0.298 N 
ATOM     62  H   ILE A  10      24.923  21.430  10.987  0.00  0.00    +0.150 HD
BRANCH  61  63
ATOM     63  CA  ILE A  10      24.913  20.715   8.952  0.00  0.00    +0.137 C 
BRANCH  63  64
ATOM     64  CB  ILE A  10      23.427  20.819   8.564  0.00  0.00    +0.026 C 
ATOM     65  CG2 ILE A  10      22.707  19.564   9.021  0.00  0.00    +0.002 C 
BRANCH  64  66
ATOM     66  CG1 ILE A  10      22.716  22.061   9.103  0.00  0.00    +0.002 C 
ATOM     67  CD1 ILE A  10      21.320  22.279   8.518  0.00  0.00    +0.000 C 
ENDBRANCH  64  66
ENDBRANCH  63  64
BRANCH  63  68
ATOM     68  C   ILE A  10      25.672  21.925   8.449  0.00  0.00    +0.227 C 
ATOM     69  O   ILE A  10      25.927  22.911   9.138  0.00  0.00    -0.286 OA
ENDBRANCH  63  68
ENDBRANCH  61  63
ENDBRANCH  58  59
BRANCH  58  70
ATOM     70  CB  PHE A   9      27.335  20.108  12.505  0.00  0.00    +0.055 C 
BRANCH  70  71
ATOM     71  CG  PHE A   9      27.685  20.710  13.853  0.00  0.00    -0.020 A 
ATOM     72  CD2 PHE A   9      27.806  19.917  14.987  0.00  0.00    -0.004 A 
ATOM     73  CE2 PHE A   9      28.096  20.527  16.183  0.00  0.00    -0.000 A 
ATOM     74  CZ  PHE A   9      28.284  21.886  16.262  0.00  0.00    -0.000 A 
ATOM     75  CE1 PHE A   9      28.177  22.680  15.151  0.00  0.00    -0.000 A 
ATOM     76  CD1 PHE A   9      27.856  22.079  13.955  0.00  0.00    -0.004 A 
ENDBRANCH  70  71
ENDBRANCH  58  70
ENDBRANCH  56  58
ENDBRANCH  53  54
ENDBRANCH  50  53
ENDBRANCH  48  49
ENDBRANCH  45  48
ENDBRANCH  43  44
BRANCH  43  77
ATOM     77  CB  ILE A   6      18.835  17.461  18.608  0.00  0.00    +0.027 C 
ATOM     78  CG2 ILE A   6      18.401  16.001  18.700  0.00  0.00    +0.002 C 
BRANCH  77  79
ATOM     79  CG1 ILE A   6      18.591  18.178  19.944  0.00  0.00    +0.002 C 
ATOM     80  CD1 ILE A   6      18.518  17.277  21.146  0.00  0.00    +0.000 C 
ENDBRANCH  77  79
ENDBRANCH  43  77
ENDBRANCH   2  43
TORSDOF 35
REMARK  Name = ../refined-set-2016/3s43/3s43_pocket.pdb
REMARK  235 active torsions:
REMARK  status: ('A' for Active; 'I' for Inactive)
REMARK    1  A    between atoms: _1  and  _3
REMARK    2  A    between atoms: _3  and  _4
REMARK    3  A    between atoms: _3  and  _6
REMARK    4  A    between atoms: _6  and  _7
REMARK    5  A    between atoms: _7  and  _8
REMARK    6  A    between atoms: _8  and  _9
REMARK    7  A    between atoms: _18  and  _20
REMARK    8  A    between atoms: _20  and  _21
REMARK    9  A    between atoms: _20  and  _23
REMARK   10  A    between atoms: _23  and  _24
REMARK   11  A    between atoms: _27  and  _29
REMARK   12  A    between atoms: _29  and  _30
REMARK   13  A    between atoms: _29  and  _32
REMARK   14  A    between atoms: _32  and  _33
REMARK   15  A    between atoms: _36  and  _38
REMARK   16  A    between atoms: _38  and  _39
REMARK   17  A    between atoms: _38  and  _41
REMARK   18  A    between atoms: _41  and  _42
REMARK   19  A    between atoms: _45  and  _47
REMARK   20  A    between atoms: _47  and  _48
REMARK   21  A    between atoms: _47  and  _50
REMARK   22  A    between atoms: _50  and  _51
REMARK   23  A    between atoms: _54  and  _56
REMARK   24  A    between atoms: _56  and  _57
REMARK   25  A    between atoms: _59  and  _61
REMARK   26  A    between atoms: _61  and  _62
REMARK   27  A    between atoms: _65  and  _67
REMARK   28  A    between atoms: _67  and  _68
REMARK   29  A    between atoms: _67  and  _70
REMARK   30  A    between atoms: _70  and  _71
REMARK   31  A    between atoms: _74  and  _76
REMARK   32  A    between atoms: _76  and  _77
REMARK   33  A    between atoms: _76  and  _79
REMARK   34  A    between atoms: _79  and  _80
REMARK   35  A    between atoms: _83  and  _85
REMARK   36  A    between atoms: _85  and  _86
REMARK   37  A    between atoms: _85  and  _88
REMARK   38  A    between atoms: _88  and  _89
REMARK   39  A    between atoms: _92  and  _94
REMARK   40  A    between atoms: _94  and  _95
REMARK   41  A    between atoms: _94  and  _97
REMARK   42  A    between atoms: _97  and  _98
REMARK   43  A    between atoms: _101  and  _103
REMARK   44  A    between atoms: _103  and  _104
REMARK   45  A    between atoms: _103  and  _106
REMARK   46  A    between atoms: _106  and  _107
REMARK   47  A    between atoms: _107  and  _108
REMARK   48  A    between atoms: _108  and  _109
REMARK   49  A    between atoms: _109  and  _110
REMARK   50  A    between atoms: _114  and  _116
REMARK   51  A    between atoms: _116  and  _117
REMARK   52  A    between atoms: _116  and  _119
REMARK   53  A    between atoms: _119  and  _120
REMARK   54  A    between atoms: _120  and  _121
REMARK   55  A    between atoms: _123  and  _125
REMARK   56  A    between atoms: _125  and  _126
REMARK   57  A    between atoms: _125  and  _128
REMARK   58  A    between atoms: _131  and  _133
REMARK   59  A    between atoms: _133  and  _134
REMARK   60  A    between atoms: _136  and  _138
REMARK   61  A    between atoms: _138  and  _139
REMARK   62  A    between atoms: _141  and  _143
REMARK   63  A    between atoms: _143  and  _144
REMARK   64  A    between atoms: _143  and  _146
REMARK   65  A    between atoms: _146  and  _147
REMARK   66  A    between atoms: _150  and  _152
REMARK   67  A    between atoms: _152  and  _153
REMARK   68  A    between atoms: _155  and  _157
REMARK   69  A    between atoms: _157  and  _158
REMARK   70  A    between atoms: _160  and  _162
REMARK   71  A    between atoms: _162  and  _163
REMARK   72  A    between atoms: _162  and  _165
REMARK   73  A    between atoms: _165  and  _166
REMARK   74  A    between atoms: _172  and  _174
REMARK   75  A    between atoms: _174  and  _175
REMARK   76  A    between atoms: _174  and  _177
REMARK   77  A    between atoms: _177  and  _178
REMARK   78  A    between atoms: _181  and  _183
REMARK   79  A    between atoms: _183  and  _184
REMARK   80  A    between atoms: _183  and  _186
REMARK   81  A    between atoms: _189  and  _191
REMARK   82  A    between atoms: _191  and  _192
REMARK   83  A    between atoms: _191  and  _194
REMARK   84  A    between atoms: _194  and  _195
REMARK   85  A    between atoms: _198  and  _200
REMARK   86  A    between atoms: _200  and  _201
REMARK   87  A    between atoms: _200  and  _203
REMARK   88  A    between atoms: _203  and  _204
REMARK   89  A    between atoms: _208  and  _209
REMARK   90  A    between atoms: _214  and  _216
REMARK   91  A    between atoms: _216  and  _217
REMARK   92  A    between atoms: _216  and  _219
REMARK   93  A    between atoms: _219  and  _220
REMARK   94  A    between atoms: _223  and  _225
REMARK   95  A    between atoms: _225  and  _226
REMARK   96  A    between atoms: _225  and  _228
REMARK   97  A    between atoms: _228  and  _229
REMARK   98  A    between atoms: _234  and  _236
REMARK   99  A    between atoms: _236  and  _237
REMARK  100  A    between atoms: _236  and  _239
REMARK  101  A    between atoms: _239  and  _240
REMARK  102  A    between atoms: _243  and  _245
REMARK  103  A    between atoms: _245  and  _246
REMARK  104  A    between atoms: _245  and  _248
REMARK  105  A    between atoms: _248  and  _249
REMARK  106  A    between atoms: _252  and  _254
REMARK  107  A    between atoms: _254  and  _255
REMARK  108  A    between atoms: _257  and  _259
REMARK  109  A    between atoms: _259  and  _260
REMARK  110  A    between atoms: _259  and  _262
REMARK  111  A    between atoms: _262  and  _263
REMARK  112  A    between atoms: _263  and  _264
REMARK  113  A    between atoms: _264  and  _265
REMARK  114  A    between atoms: _274  and  _276
REMARK  115  A    between atoms: _276  and  _277
REMARK  116  A    between atoms: _276  and  _279
REMARK  117  A    between atoms: _279  and  _280
REMARK  118  A    between atoms: _285  and  _287
REMARK  119  A    between atoms: _287  and  _288
REMARK  120  A    between atoms: _287  and  _290
REMARK  121  A    between atoms: _290  and  _291
REMARK  122  A    between atoms: _291  and  _292
REMARK  123  A    between atoms: _292  and  _293
REMARK  124  A    between atoms: _302  and  _304
REMARK  125  A    between atoms: _304  and  _305
REMARK  126  A    between atoms: _304  and  _307
REMARK  127  A    between atoms: _307  and  _308
REMARK  128  A    between atoms: _311  and  _313
REMARK  129  A    between atoms: _313  and  _314
REMARK  130  A    between atoms: _313  and  _316
REMARK  131  A    between atoms: _316  and  _317
REMARK  132  A    between atoms: _320  and  _322
REMARK  133  A    between atoms: _322  and  _323
REMARK  134  A    between atoms: _322  and  _325
REMARK  135  A    between atoms: _325  and  _326
REMARK  136  A    between atoms: _329  and  _331
REMARK  137  A    between atoms: _331  and  _332
REMARK  138  A    between atoms: _331  and  _334
REMARK  139  A    between atoms: _334  and  _335
REMARK  140  A    between atoms: _338  and  _340
REMARK  141  A    between atoms: _340  and  _341
REMARK  142  A    between atoms: _343  and  _345
REMARK  143  A    between atoms: _345  and  _346
REMARK  144  A    between atoms: _349  and  _351
REMARK  145  A    between atoms: _351  and  _352
REMARK  146  A    between atoms: _351  and  _354
REMARK  147  A    between atoms: _354  and  _355
REMARK  148  A    between atoms: _358  and  _360
REMARK  149  A    between atoms: _360  and  _361
REMARK  150  A    between atoms: _360  and  _363
REMARK  151  A    between atoms: _363  and  _364
REMARK  152  A    between atoms: _367  and  _369
REMARK  153  A    between atoms: _369  and  _370
REMARK  154  A    between atoms: _369  and  _372
REMARK  155  A    between atoms: _372  and  _373
REMARK  156  A    between atoms: _376  and  _378
REMARK  157  A    between atoms: _378  and  _379
REMARK  158  A    between atoms: _378  and  _381
REMARK  159  A    between atoms: _381  and  _382
REMARK  160  A    between atoms: _385  and  _387
REMARK  161  A    between atoms: _387  and  _388
REMARK  162  A    between atoms: _387  and  _390
REMARK  163  A    between atoms: _390  and  _391
REMARK  164  A    between atoms: _394  and  _396
REMARK  165  A    between atoms: _396  and  _397
REMARK  166  A    between atoms: _396  and  _399
REMARK  167  A    between atoms: _399  and  _400
REMARK  168  A    between atoms: _400  and  _401
REMARK  169  A    between atoms: _401  and  _402
REMARK  170  A    between atoms: _402  and  _403
REMARK  171  A    between atoms: _407  and  _409
REMARK  172  A    between atoms: _409  and  _410
REMARK  173  A    between atoms: _409  and  _412
REMARK  174  A    between atoms: _412  and  _413
REMARK  175  A    between atoms: _413  and  _414
REMARK  176  A    between atoms: _416  and  _418
REMARK  177  A    between atoms: _418  and  _419
REMARK  178  A    between atoms: _418  and  _421
REMARK  179  A    between atoms: _424  and  _426
REMARK  180  A    between atoms: _426  and  _427
REMARK  181  A    between atoms: _429  and  _431
REMARK  182  A    between atoms: _431  and  _432
REMARK  183  A    between atoms: _434  and  _436
REMARK  184  A    between atoms: _436  and  _437
REMARK  185  A    between atoms: _436  and  _439
REMARK  186  A    between atoms: _439  and  _440
REMARK  187  A    between atoms: _443  and  _445
REMARK  188  A    between atoms: _445  and  _446
REMARK  189  A    between atoms: _448  and  _450
REMARK  190  A    between atoms: _450  and  _451
REMARK  191  A    between atoms: _453  and  _455
REMARK  192  A    between atoms: _455  and  _456
REMARK  193  A    between atoms: _455  and  _458
REMARK  194  A    between atoms: _458  and  _459
REMARK  195  A    between atoms: _465  and  _467
REMARK  196  A    between atoms: _467  and  _468
REMARK  197  A    between atoms: _467  and  _470
REMARK  198  A    between atoms: _470  and  _471
REMARK  199  A    between atoms: _474  and  _476
REMARK  200  A    between atoms: _476  and  _477
REMARK  201  A    between atoms: _476  and  _479
REMARK  202  A    between atoms: _479  and  _480
REMARK  203  A    between atoms: _483  and  _485
REMARK  204  A    between atoms: _485  and  _486
REMARK  205  A    between atoms: _485  and  _488
REMARK  206  A    between atoms: _488  and  _489
REMARK  207  A    between atoms: _493  and  _494
REMARK  208  A    between atoms: _499  and  _501
REMARK  209  A    between atoms: _501  and  _502
REMARK  210  A    between atoms: _501  and  _504
REMARK  211  A    between atoms: _504  and  _505
REMARK  212  A    between atoms: _508  and  _510
REMARK  213  A    between atoms: _510  and  _511
REMARK  214  A    between atoms: _510  and  _513
REMARK  215  A    between atoms: _513  and  _514
REMARK  216  A    between atoms: _519  and  _521
REMARK  217  A    between atoms: _521  and  _522
REMARK  218  A    between atoms: _521  and  _524
REMARK  219  A    between atoms: _524  and  _525
REMARK  220  A    between atoms: _528  and  _530
REMARK  221  A    between atoms: _530  and  _531
REMARK  222  A    between atoms: _530  and  _533
REMARK  223  A    between atoms: _533  and  _534
REMARK  224  A    between atoms: _537  and  _539
REMARK  225  A    between atoms: _539  and  _540
REMARK  226  A    between atoms: _542  and  _544
REMARK  227  A    between atoms: _544  and  _545
REMARK  228  A    between atoms: _544  and  _547
REMARK  229  A    between atoms: _547  and  _548
REMARK  230  A    between atoms: _548  and  _549
REMARK  231  A    between atoms: _549  and  _550
REMARK  232  A    between atoms: _559  and  _561
REMARK  233  A    between atoms: _561  and  _562
REMARK  234  A    between atoms: _561  and  _564
REMARK  235  A    between atoms: _564  and  _565
REMARK                            x       y       z     vdW  Elec       q    Type
REMARK                         _______ _______ _______ _____ _____    ______ ____
ROOT
ATOM      1  CA  VAL A   1      24.886  26.071   5.410  0.00  0.00    +0.133 C 
ENDROOT
BRANCH   1   2
ATOM      2  CB  VAL A   1      24.002  26.702   6.502  0.00  0.00    +0.023 C 
ATOM      3  CG2 VAL A   1      24.800  27.530   7.540  0.00  0.00    +0.002 C 
ATOM      4  CG1 VAL A   1      23.183  25.650   7.219  0.00  0.00    +0.002 C 
ENDBRANCH   1   2
BRANCH   1   5
ATOM      5  N   VAL A   1      25.807  25.081   5.949  0.00  0.00    -0.239 NA
ATOM      6  H   VAL A   1      26.632  25.409   6.490  0.00  0.00    +0.142 HD
ENDBRANCH   1   5
BRANCH   1   7
ATOM      7  C   VAL A   1      25.662  27.181   4.697  0.00  0.00    +0.224 C 
ATOM      8  O   VAL A   1      26.895  27.327   4.828  0.00  0.00    -0.287 OA
ENDBRANCH   1   7
TORSDOF 3
REMARK  Name = ../refined-set-2016/3s43/3s43_pocket.pdb
REMARK  235 active torsions:
REMARK  status: ('A' for Active; 'I' for Inactive)
REMARK    1  A    between atoms: _1  and  _3
REMARK    2  A    between atoms: _3  and  _4
REMARK    3  A    between atoms: _3  and  _6
REMARK    4  A    between atoms: _6  and  _7
REMARK    5  A    between atoms: _7  and  _8
REMARK    6  A    between atoms: _8  and  _9
REMARK    7  A    between atoms: _18  and  _20
REMARK    8  A    between atoms: _20  and  _21
REMARK    9  A    between atoms: _20  and  _23
REMARK   10  A    between atoms: _23  and  _24
REMARK   11  A    between atoms: _27  and  _29
REMARK   12  A    between atoms: _29  and  _30
REMARK   13  A    between atoms: _29  and  _32
REMARK   14  A    between atoms: _32  and  _33
REMARK   15  A    between atoms: _36  and  _38
REMARK   16  A    between atoms: _38  and  _39
REMARK   17  A    between atoms: _38  and  _41
REMARK   18  A    between atoms: _41  and  _42
REMARK   19  A    between atoms: _45  and  _47
REMARK   20  A    between atoms: _47  and  _48
REMARK   21  A    between atoms: _47  and  _50
REMARK   22  A    between atoms: _50  and  _51
REMARK   23  A    between atoms: _54  and  _56
REMARK   24  A    between atoms: _56  and  _57
REMARK   25  A    between atoms: _59  and  _61
REMARK   26  A    between atoms: _61  and  _62
REMARK   27  A    between atoms: _65  and  _67
REMARK   28  A    between atoms: _67  and  _68
REMARK   29  A    between atoms: _67  and  _70
REMARK   30  A    between atoms: _70  and  _71
REMARK   31  A    between atoms: _74  and  _76
REMARK   32  A    between atoms: _76  and  _77
REMARK   33  A    between atoms: _76  and  _79
REMARK   34  A    between atoms: _79  and  _80
REMARK   35  A    between atoms: _83  and  _85
REMARK   36  A    between atoms: _85  and  _86
REMARK   37  A    between atoms: _85  and  _88
REMARK   38  A    between atoms: _88  and  _89
REMARK   39  A    between atoms: _92  and  _94
REMARK   40  A    between atoms: _94  and  _95
REMARK   41  A    between atoms: _94  and  _97
REMARK   42  A    between atoms: _97  and  _98
REMARK   43  A    between atoms: _101  and  _103
REMARK   44  A    between atoms: _103  and  _104
REMARK   45  A    between atoms: _103  and  _106
REMARK   46  A    between atoms: _106  and  _107
REMARK   47  A    between atoms: _107  and  _108
REMARK   48  A    between atoms: _108  and  _109
REMARK   49  A    between atoms: _109  and  _110
REMARK   50  A    between atoms: _114  and  _116
REMARK   51  A    between atoms: _116  and  _117
REMARK   52  A    between atoms: _116  and  _119
REMARK   53  A    between atoms: _119  and  _120
REMARK   54  A    between atoms: _120  and  _121
REMARK   55  A    between atoms: _123  and  _125
REMARK   56  A    between atoms: _125  and  _126
REMARK   57  A    between atoms: _125  and  _128
REMARK   58  A    between atoms: _131  and  _133
REMARK   59  A    between atoms: _133  and  _134
REMARK   60  A    between atoms: _136  and  _138
REMARK   61  A    between atoms: _138  and  _139
REMARK   62  A    between atoms: _141  and  _143
REMARK   63  A    between atoms: _143  and  _144
REMARK   64  A    between atoms: _143  and  _146
REMARK   65  A    between atoms: _146  and  _147
REMARK   66  A    between atoms: _150  and  _152
REMARK   67  A    between atoms: _152  and  _153
REMARK   68  A    between atoms: _155  and  _157
REMARK   69  A    between atoms: _157  and  _158
REMARK   70  A    between atoms: _160  and  _162
REMARK   71  A    between atoms: _162  and  _163
REMARK   72  A    between atoms: _162  and  _165
REMARK   73  A    between atoms: _165  and  _166
REMARK   74  A    between atoms: _172  and  _174
REMARK   75  A    between atoms: _174  and  _175
REMARK   76  A    between atoms: _174  and  _177
REMARK   77  A    between atoms: _177  and  _178
REMARK   78  A    between atoms: _181  and  _183
REMARK   79  A    between atoms: _183  and  _184
REMARK   80  A    between atoms: _183  and  _186
REMARK   81  A    between atoms: _189  and  _191
REMARK   82  A    between atoms: _191  and  _192
REMARK   83  A    between atoms: _191  and  _194
REMARK   84  A    between atoms: _194  and  _195
REMARK   85  A    between atoms: _198  and  _200
REMARK   86  A    between atoms: _200  and  _201
REMARK   87  A    between atoms: _200  and  _203
REMARK   88  A    between atoms: _203  and  _204
REMARK   89  A    between atoms: _208  and  _209
REMARK   90  A    between atoms: _214  and  _216
REMARK   91  A    between atoms: _216  and  _217
REMARK   92  A    between atoms: _216  and  _219
REMARK   93  A    between atoms: _219  and  _220
REMARK   94  A    between atoms: _223  and  _225
REMARK   95  A    between atoms: _225  and  _226
REMARK   96  A    between atoms: _225  and  _228
REMARK   97  A    between atoms: _228  and  _229
REMARK   98  A    between atoms: _234  and  _236
REMARK   99  A    between atoms: _236  and  _237
REMARK  100  A    between atoms: _236  and  _239
REMARK  101  A    between atoms: _239  and  _240
REMARK  102  A    between atoms: _243  and  _245
REMARK  103  A    between atoms: _245  and  _246
REMARK  104  A    between atoms: _245  and  _248
REMARK  105  A    between atoms: _248  and  _249
REMARK  106  A    between atoms: _252  and  _254
REMARK  107  A    between atoms: _254  and  _255
REMARK  108  A    between atoms: _257  and  _259
REMARK  109  A    between atoms: _259  and  _260
REMARK  110  A    between atoms: _259  and  _262
REMARK  111  A    between atoms: _262  and  _263
REMARK  112  A    between atoms: _263  and  _264
REMARK  113  A    between atoms: _264  and  _265
REMARK  114  A    between atoms: _274  and  _276
REMARK  115  A    between atoms: _276  and  _277
REMARK  116  A    between atoms: _276  and  _279
REMARK  117  A    between atoms: _279  and  _280
REMARK  118  A    between atoms: _285  and  _287
REMARK  119  A    between atoms: _287  and  _288
REMARK  120  A    between atoms: _287  and  _290
REMARK  121  A    between atoms: _290  and  _291
REMARK  122  A    between atoms: _291  and  _292
REMARK  123  A    between atoms: _292  and  _293
REMARK  124  A    between atoms: _302  and  _304
REMARK  125  A    between atoms: _304  and  _305
REMARK  126  A    between atoms: _304  and  _307
REMARK  127  A    between atoms: _307  and  _308
REMARK  128  A    between atoms: _311  and  _313
REMARK  129  A    between atoms: _313  and  _314
REMARK  130  A    between atoms: _313  and  _316
REMARK  131  A    between atoms: _316  and  _317
REMARK  132  A    between atoms: _320  and  _322
REMARK  133  A    between atoms: _322  and  _323
REMARK  134  A    between atoms: _322  and  _325
REMARK  135  A    between atoms: _325  and  _326
REMARK  136  A    between atoms: _329  and  _331
REMARK  137  A    between atoms: _331  and  _332
REMARK  138  A    between atoms: _331  and  _334
REMARK  139  A    between atoms: _334  and  _335
REMARK  140  A    between atoms: _338  and  _340
REMARK  141  A    between atoms: _340  and  _341
REMARK  142  A    between atoms: _343  and  _345
REMARK  143  A    between atoms: _345  and  _346
REMARK  144  A    between atoms: _349  and  _351
REMARK  145  A    between atoms: _351  and  _352
REMARK  146  A    between atoms: _351  and  _354
REMARK  147  A    between atoms: _354  and  _355
REMARK  148  A    between atoms: _358  and  _360
REMARK  149  A    between atoms: _360  and  _361
REMARK  150  A    between atoms: _360  and  _363
REMARK  151  A    between atoms: _363  and  _364
REMARK  152  A    between atoms: _367  and  _369
REMARK  153  A    between atoms: _369  and  _370
REMARK  154  A    between atoms: _369  and  _372
REMARK  155  A    between atoms: _372  and  _373
REMARK  156  A    between atoms: _376  and  _378
REMARK  157  A    between atoms: _378  and  _379
REMARK  158  A    between atoms: _378  and  _381
REMARK  159  A    between atoms: _381  and  _382
REMARK  160  A    between atoms: _385  and  _387
REMARK  161  A    between atoms: _387  and  _388
REMARK  162  A    between atoms: _387  and  _390
REMARK  163  A    between atoms: _390  and  _391
REMARK  164  A    between atoms: _394  and  _396
REMARK  165  A    between atoms: _396  and  _397
REMARK  166  A    between atoms: _396  and  _399
REMARK  167  A    between atoms: _399  and  _400
REMARK  168  A    between atoms: _400  and  _401
REMARK  169  A    between atoms: _401  and  _402
REMARK  170  A    between atoms: _402  and  _403
REMARK  171  A    between atoms: _407  and  _409
REMARK  172  A    between atoms: _409  and  _410
REMARK  173  A    between atoms: _409  and  _412
REMARK  174  A    between atoms: _412  and  _413
REMARK  175  A    between atoms: _413  and  _414
REMARK  176  A    between atoms: _416  and  _418
REMARK  177  A    between atoms: _418  and  _419
REMARK  178  A    between atoms: _418  and  _421
REMARK  179  A    between atoms: _424  and  _426
REMARK  180  A    between atoms: _426  and  _427
REMARK  181  A    between atoms: _429  and  _431
REMARK  182  A    between atoms: _431  and  _432
REMARK  183  A    between atoms: _434  and  _436
REMARK  184  A    between atoms: _436  and  _437
REMARK  185  A    between atoms: _436  and  _439
REMARK  186  A    between atoms: _439  and  _440
REMARK  187  A    between atoms: _443  and  _445
REMARK  188  A    between atoms: _445  and  _446
REMARK  189  A    between atoms: _448  and  _450
REMARK  190  A    between atoms: _450  and  _451
REMARK  191  A    between atoms: _453  and  _455
REMARK  192  A    between atoms: _455  and  _456
REMARK  193  A    between atoms: _455  and  _458
REMARK  194  A    between atoms: _458  and  _459
REMARK  195  A    between atoms: _465  and  _467
REMARK  196  A    between atoms: _467  and  _468
REMARK  197  A    between atoms: _467  and  _470
REMARK  198  A    between atoms: _470  and  _471
REMARK  199  A    between atoms: _474  and  _476
REMARK  200  A    between atoms: _476  and  _477
REMARK  201  A    between atoms: _476  and  _479
REMARK  202  A    between atoms: _479  and  _480
REMARK  203  A    between atoms: _483  and  _485
REMARK  204  A    between atoms: _485  and  _486
REMARK  205  A    between atoms: _485  and  _488
REMARK  206  A    between atoms: _488  and  _489
REMARK  207  A    between atoms: _493  and  _494
REMARK  208  A    between atoms: _499  and  _501
REMARK  209  A    between atoms: _501  and  _502
REMARK  210  A    between atoms: _501  and  _504
REMARK  211  A    between atoms: _504  and  _505
REMARK  212  A    between atoms: _508  and  _510
REMARK  213  A    between atoms: _510  and  _511
REMARK  214  A    between atoms: _510  and  _513
REMARK  215  A    between atoms: _513  and  _514
REMARK  216  A    between atoms: _519  and  _521
REMARK  217  A    between atoms: _521  and  _522
REMARK  218  A    between atoms: _521  and  _524
REMARK  219  A    between atoms: _524  and  _525
REMARK  220  A    between atoms: _528  and  _530
REMARK  221  A    between atoms: _530  and  _531
REMARK  222  A    between atoms: _530  and  _533
REMARK  223  A    between atoms: _533  and  _534
REMARK  224  A    between atoms: _537  and  _539
REMARK  225  A    between atoms: _539  and  _540
REMARK  226  A    between atoms: _542  and  _544
REMARK  227  A    between atoms: _544  and  _545
REMARK  228  A    between atoms: _544  and  _547
REMARK  229  A    between atoms: _547  and  _548
REMARK  230  A    between atoms: _548  and  _549
REMARK  231  A    between atoms: _549  and  _550
REMARK  232  A    between atoms: _559  and  _561
REMARK  233  A    between atoms: _561  and  _562
REMARK  234  A    between atoms: _561  and  _564
REMARK  235  A    between atoms: _564  and  _565
REMARK                            x       y       z     vdW  Elec       q    Type
REMARK                         _______ _______ _______ _____ _____    ______ ____
ROOT
ATOM      1  CA  LEU A   1      21.401  30.795   6.744  0.00  0.00    +0.133 C 
ENDROOT
BRANCH   1   2
ATOM      2  N   LEU A   1      20.674  31.985   7.119  0.00  0.00    -0.239 NA
ATOM      3  H   LEU A   1      20.039  31.942   7.942  0.00  0.00    +0.142 HD
ENDBRANCH   1   2
BRANCH   1   4
ATOM      4  C   LEU A   1      20.520  29.944   5.845  0.00  0.00    +0.224 C 
ATOM      5  O   LEU A   1      19.306  29.848   6.076  0.00  0.00    -0.287 OA
ENDBRANCH   1   4
BRANCH   1   6
ATOM      6  CB  LEU A   1      21.786  29.979   7.981  0.00  0.00    +0.025 C 
BRANCH   6   7
ATOM      7  CG  LEU A   1      22.478  30.815   9.086  0.00  0.00    +0.002 C 
ATOM      8  CD2 LEU A   1      22.752  29.870  10.253  0.00  0.00    +0.000 C 
ATOM      9  CD1 LEU A   1      23.725  31.534   8.591  0.00  0.00    +0.000 C 
ENDBRANCH   6   7
ENDBRANCH   1   6
TORSDOF 4
REMARK  Name = ../refined-set-2016/3s43/3s43_pocket.pdb
REMARK  235 active torsions:
REMARK  status: ('A' for Active; 'I' for Inactive)
REMARK    1  A    between atoms: _1  and  _3
REMARK    2  A    between atoms: _3  and  _4
REMARK    3  A    between atoms: _3  and  _6
REMARK    4  A    between atoms: _6  and  _7
REMARK    5  A    between atoms: _7  and  _8
REMARK    6  A    between atoms: _8  and  _9
REMARK    7  A    between atoms: _18  and  _20
REMARK    8  A    between atoms: _20  and  _21
REMARK    9  A    between atoms: _20  and  _23
REMARK   10  A    between atoms: _23  and  _24
REMARK   11  A    between atoms: _27  and  _29
REMARK   12  A    between atoms: _29  and  _30
REMARK   13  A    between atoms: _29  and  _32
REMARK   14  A    between atoms: _32  and  _33
REMARK   15  A    between atoms: _36  and  _38
REMARK   16  A    between atoms: _38  and  _39
REMARK   17  A    between atoms: _38  and  _41
REMARK   18  A    between atoms: _41  and  _42
REMARK   19  A    between atoms: _45  and  _47
REMARK   20  A    between atoms: _47  and  _48
REMARK   21  A    between atoms: _47  and  _50
REMARK   22  A    between atoms: _50  and  _51
REMARK   23  A    between atoms: _54  and  _56
REMARK   24  A    between atoms: _56  and  _57
REMARK   25  A    between atoms: _59  and  _61
REMARK   26  A    between atoms: _61  and  _62
REMARK   27  A    between atoms: _65  and  _67
REMARK   28  A    between atoms: _67  and  _68
REMARK   29  A    between atoms: _67  and  _70
REMARK   30  A    between atoms: _70  and  _71
REMARK   31  A    between atoms: _74  and  _76
REMARK   32  A    between atoms: _76  and  _77
REMARK   33  A    between atoms: _76  and  _79
REMARK   34  A    between atoms: _79  and  _80
REMARK   35  A    between atoms: _83  and  _85
REMARK   36  A    between atoms: _85  and  _86
REMARK   37  A    between atoms: _85  and  _88
REMARK   38  A    between atoms: _88  and  _89
REMARK   39  A    between atoms: _92  and  _94
REMARK   40  A    between atoms: _94  and  _95
REMARK   41  A    between atoms: _94  and  _97
REMARK   42  A    between atoms: _97  and  _98
REMARK   43  A    between atoms: _101  and  _103
REMARK   44  A    between atoms: _103  and  _104
REMARK   45  A    between atoms: _103  and  _106
REMARK   46  A    between atoms: _106  and  _107
REMARK   47  A    between atoms: _107  and  _108
REMARK   48  A    between atoms: _108  and  _109
REMARK   49  A    between atoms: _109  and  _110
REMARK   50  A    between atoms: _114  and  _116
REMARK   51  A    between atoms: _116  and  _117
REMARK   52  A    between atoms: _116  and  _119
REMARK   53  A    between atoms: _119  and  _120
REMARK   54  A    between atoms: _120  and  _121
REMARK   55  A    between atoms: _123  and  _125
REMARK   56  A    between atoms: _125  and  _126
REMARK   57  A    between atoms: _125  and  _128
REMARK   58  A    between atoms: _131  and  _133
REMARK   59  A    between atoms: _133  and  _134
REMARK   60  A    between atoms: _136  and  _138
REMARK   61  A    between atoms: _138  and  _139
REMARK   62  A    between atoms: _141  and  _143
REMARK   63  A    between atoms: _143  and  _144
REMARK   64  A    between atoms: _143  and  _146
REMARK   65  A    between atoms: _146  and  _147
REMARK   66  A    between atoms: _150  and  _152
REMARK   67  A    between atoms: _152  and  _153
REMARK   68  A    between atoms: _155  and  _157
REMARK   69  A    between atoms: _157  and  _158
REMARK   70  A    between atoms: _160  and  _162
REMARK   71  A    between atoms: _162  and  _163
REMARK   72  A    between atoms: _162  and  _165
REMARK   73  A    between atoms: _165  and  _166
REMARK   74  A    between atoms: _172  and  _174
REMARK   75  A    between atoms: _174  and  _175
REMARK   76  A    between atoms: _174  and  _177
REMARK   77  A    between atoms: _177  and  _178
REMARK   78  A    between atoms: _181  and  _183
REMARK   79  A    between atoms: _183  and  _184
REMARK   80  A    between atoms: _183  and  _186
REMARK   81  A    between atoms: _189  and  _191
REMARK   82  A    between atoms: _191  and  _192
REMARK   83  A    between atoms: _191  and  _194
REMARK   84  A    between atoms: _194  and  _195
REMARK   85  A    between atoms: _198  and  _200
REMARK   86  A    between atoms: _200  and  _201
REMARK   87  A    between atoms: _200  and  _203
REMARK   88  A    between atoms: _203  and  _204
REMARK   89  A    between atoms: _208  and  _209
REMARK   90  A    between atoms: _214  and  _216
REMARK   91  A    between atoms: _216  and  _217
REMARK   92  A    between atoms: _216  and  _219
REMARK   93  A    between atoms: _219  and  _220
REMARK   94  A    between atoms: _223  and  _225
REMARK   95  A    between atoms: _225  and  _226
REMARK   96  A    between atoms: _225  and  _228
REMARK   97  A    between atoms: _228  and  _229
REMARK   98  A    between atoms: _234  and  _236
REMARK   99  A    between atoms: _236  and  _237
REMARK  100  A    between atoms: _236  and  _239
REMARK  101  A    between atoms: _239  and  _240
REMARK  102  A    between atoms: _243  and  _245
REMARK  103  A    between atoms: _245  and  _246
REMARK  104  A    between atoms: _245  and  _248
REMARK  105  A    between atoms: _248  and  _249
REMARK  106  A    between atoms: _252  and  _254
REMARK  107  A    between atoms: _254  and  _255
REMARK  108  A    between atoms: _257  and  _259
REMARK  109  A    between atoms: _259  and  _260
REMARK  110  A    between atoms: _259  and  _262
REMARK  111  A    between atoms: _262  and  _263
REMARK  112  A    between atoms: _263  and  _264
REMARK  113  A    between atoms: _264  and  _265
REMARK  114  A    between atoms: _274  and  _276
REMARK  115  A    between atoms: _276  and  _277
REMARK  116  A    between atoms: _276  and  _279
REMARK  117  A    between atoms: _279  and  _280
REMARK  118  A    between atoms: _285  and  _287
REMARK  119  A    between atoms: _287  and  _288
REMARK  120  A    between atoms: _287  and  _290
REMARK  121  A    between atoms: _290  and  _291
REMARK  122  A    between atoms: _291  and  _292
REMARK  123  A    between atoms: _292  and  _293
REMARK  124  A    between atoms: _302  and  _304
REMARK  125  A    between atoms: _304  and  _305
REMARK  126  A    between atoms: _304  and  _307
REMARK  127  A    between atoms: _307  and  _308
REMARK  128  A    between atoms: _311  and  _313
REMARK  129  A    between atoms: _313  and  _314
REMARK  130  A    between atoms: _313  and  _316
REMARK  131  A    between atoms: _316  and  _317
REMARK  132  A    between atoms: _320  and  _322
REMARK  133  A    between atoms: _322  and  _323
REMARK  134  A    between atoms: _322  and  _325
REMARK  135  A    between atoms: _325  and  _326
REMARK  136  A    between atoms: _329  and  _331
REMARK  137  A    between atoms: _331  and  _332
REMARK  138  A    between atoms: _331  and  _334
REMARK  139  A    between atoms: _334  and  _335
REMARK  140  A    between atoms: _338  and  _340
REMARK  141  A    between atoms: _340  and  _341
REMARK  142  A    between atoms: _343  and  _345
REMARK  143  A    between atoms: _345  and  _346
REMARK  144  A    between atoms: _349  and  _351
REMARK  145  A    between atoms: _351  and  _352
REMARK  146  A    between atoms: _351  and  _354
REMARK  147  A    between atoms: _354  and  _355
REMARK  148  A    between atoms: _358  and  _360
REMARK  149  A    between atoms: _360  and  _361
REMARK  150  A    between atoms: _360  and  _363
REMARK  151  A    between atoms: _363  and  _364
REMARK  152  A    between atoms: _367  and  _369
REMARK  153  A    between atoms: _369  and  _370
REMARK  154  A    between atoms: _369  and  _372
REMARK  155  A    between atoms: _372  and  _373
REMARK  156  A    between atoms: _376  and  _378
REMARK  157  A    between atoms: _378  and  _379
REMARK  158  A    between atoms: _378  and  _381
REMARK  159  A    between atoms: _381  and  _382
REMARK  160  A    between atoms: _385  and  _387
REMARK  161  A    between atoms: _387  and  _388
REMARK  162  A    between atoms: _387  and  _390
REMARK  163  A    between atoms: _390  and  _391
REMARK  164  A    between atoms: _394  and  _396
REMARK  165  A    between atoms: _396  and  _397
REMARK  166  A    between atoms: _396  and  _399
REMARK  167  A    between atoms: _399  and  _400
REMARK  168  A    between atoms: _400  and  _401
REMARK  169  A    between atoms: _401  and  _402
REMARK  170  A    between atoms: _402  and  _403
REMARK  171  A    between atoms: _407  and  _409
REMARK  172  A    between atoms: _409  and  _410
REMARK  173  A    between atoms: _409  and  _412
REMARK  174  A    between atoms: _412  and  _413
REMARK  175  A    between atoms: _413  and  _414
REMARK  176  A    between atoms: _416  and  _418
REMARK  177  A    between atoms: _418  and  _419
REMARK  178  A    between atoms: _418  and  _421
REMARK  179  A    between atoms: _424  and  _426
REMARK  180  A    between atoms: _426  and  _427
REMARK  181  A    between atoms: _429  and  _431
REMARK  182  A    between atoms: _431  and  _432
REMARK  183  A    between atoms: _434  and  _436
REMARK  184  A    between atoms: _436  and  _437
REMARK  185  A    between atoms: _436  and  _439
REMARK  186  A    between atoms: _439  and  _440
REMARK  187  A    between atoms: _443  and  _445
REMARK  188  A    between atoms: _445  and  _446
REMARK  189  A    between atoms: _448  and  _450
REMARK  190  A    between atoms: _450  and  _451
REMARK  191  A    between atoms: _453  and  _455
REMARK  192  A    between atoms: _455  and  _456
REMARK  193  A    between atoms: _455  and  _458
REMARK  194  A    between atoms: _458  and  _459
REMARK  195  A    between atoms: _465  and  _467
REMARK  196  A    between atoms: _467  and  _468
REMARK  197  A    between atoms: _467  and  _470
REMARK  198  A    between atoms: _470  and  _471
REMARK  199  A    between atoms: _474  and  _476
REMARK  200  A    between atoms: _476  and  _477
REMARK  201  A    between atoms: _476  and  _479
REMARK  202  A    between atoms: _479  and  _480
REMARK  203  A    between atoms: _483  and  _485
REMARK  204  A    between atoms: _485  and  _486
REMARK  205  A    between atoms: _485  and  _488
REMARK  206  A    between atoms: _488  and  _489
REMARK  207  A    between atoms: _493  and  _494
REMARK  208  A    between atoms: _499  and  _501
REMARK  209  A    between atoms: _501  and  _502
REMARK  210  A    between atoms: _501  and  _504
REMARK  211  A    between atoms: _504  and  _505
REMARK  212  A    between atoms: _508  and  _510
REMARK  213  A    between atoms: _510  and  _511
REMARK  214  A    between atoms: _510  and  _513
REMARK  215  A    between atoms: _513  and  _514
REMARK  216  A    between atoms: _519  and  _521
REMARK  217  A    between atoms: _521  and  _522
REMARK  218  A    between atoms: _521  and  _524
REMARK  219  A    between atoms: _524  and  _525
REMARK  220  A    between atoms: _528  and  _530
REMARK  221  A    between atoms: _530  and  _531
REMARK  222  A    between atoms: _530  and  _533
REMARK  223  A    between atoms: _533  and  _534
REMARK  224  A    between atoms: _537  and  _539
REMARK  225  A    between atoms: _539  and  _540
REMARK  226  A    between atoms: _542  and  _544
REMARK  227  A    between atoms: _544  and  _545
REMARK  228  A    between atoms: _544  and  _547
REMARK  229  A    between atoms: _547  and  _548
REMARK  230  A    between atoms: _548  and  _549
REMARK  231  A    between atoms: _549  and  _550
REMARK  232  A    between atoms: _559  and  _561
REMARK  233  A    between atoms: _561  and  _562
REMARK  234  A    between atoms: _561  and  _564
REMARK  235  A    between atoms: _564  and  _565
REMARK                            x       y       z     vdW  Elec       q    Type
REMARK                         _______ _______ _______ _____ _____    ______ ____
ROOT
ATOM      1  C   ILE A   5      13.649  29.926  11.445  0.00  0.00    +0.241 C 
ATOM      2  N   ILE A   6      12.804  30.674  12.131  0.00  0.00    -0.297 N 
ATOM      3  H   ILE A   6      11.929  30.239  12.487  0.00  0.00    +0.150 HD
ATOM      4  O   ILE A   5      14.664  30.347  10.859  0.00  0.00    -0.273 OA
ENDROOT
BRANCH   2   5
ATOM      5  CA  ILE A   6      13.045  32.079  12.410  0.00  0.00    +0.149 C 
BRANCH   5   6
ATOM      6  C   ILE A   6      13.647  32.115  13.818  0.00  0.00    +0.241 C 
ATOM      7  O   ILE A   6      12.989  31.775  14.799  0.00  0.00    -0.273 OA
ATOM      8  N   GLY A   7      14.925  32.471  13.882  0.00  0.00    -0.295 N 
ATOM      9  H   GLY A   7      15.410  32.749  13.005  0.00  0.00    +0.150 HD
BRANCH   8  10
ATOM     10  CA  GLY A   7      15.672  32.488  15.125  0.00  0.00    +0.176 C 
BRANCH  10  11
ATOM     11  C   GLY A   7      15.707  33.888  15.736  0.00  0.00    +0.243 C 
ATOM     12  N   ARG A   8      16.424  33.974  16.867  0.00  0.00    -0.297 N 
ATOM     13  H   ARG A   8      16.988  33.154  17.169  0.00  0.00    +0.150 HD
ATOM     14  O   GLY A   7      15.153  34.837  15.263  0.00  0.00    -0.273 OA
BRANCH  12  15
ATOM     15  CA  ARG A   8      16.438  35.169  17.679  0.00  0.00    +0.149 C 
BRANCH  15  16
ATOM     16  C   ARG A   8      16.937  36.397  16.905  0.00  0.00    +0.241 C 
ATOM     17  O   ARG A   8      16.438  37.511  17.178  0.00  0.00    -0.273 OA
ATOM     18  N   ASN A   9      17.821  36.226  15.952  0.00  0.00    -0.298 N 
ATOM     19  H   ASN A   9      18.134  35.267  15.699  0.00  0.00    +0.150 HD
BRANCH  18  20
ATOM     20  CA  ASN A   9      18.368  37.385  15.243  0.00  0.00    +0.146 C 
BRANCH  20  21
ATOM     21  C   ASN A   9      17.288  38.163  14.520  0.00  0.00    +0.227 C 
ATOM     22  O   ASN A   9      17.473  39.382  14.345  0.00  0.00    -0.286 OA
ENDBRANCH  20  21
BRANCH  20  23
ATOM     23  CB  ASN A   9      19.466  36.975  14.277  0.00  0.00    +0.112 C 
BRANCH  23  24
ATOM     24  CG  ASN A   9      18.974  36.269  13.044  0.00  0.00    +0.222 C 
ATOM     25  OD1 ASN A   9      18.242  35.291  13.070  0.00  0.00    -0.275 OA
ATOM     26  ND2 ASN A   9      19.413  36.795  11.913  0.00  0.00    -0.329 N 
ATOM     27 HD21 ASN A   9      20.035  37.628  11.934  0.00  0.00    +0.145 HD
ATOM     28 HD22 ASN A   9      19.136  36.375  11.003  0.00  0.00    +0.145 HD
ENDBRANCH  23  24
ENDBRANCH  20  23
ENDBRANCH  18  20
ENDBRANCH  15  16
BRANCH  15  29
ATOM     29  CB  ARG A   8      17.238  34.999  18.954  0.00  0.00    +0.033 C 
BRANCH  29  30
ATOM     30  CG  ARG A   8      16.652  33.971  19.911  0.00  0.00    +0.045 C 
BRANCH  30  31
ATOM     31  CD  ARG A   8      17.350  33.960  21.246  0.00  0.00    +0.174 C 
BRANCH  31  32
ATOM     32  NE  ARG A   8      18.756  33.619  21.096  0.00  0.00    -0.265 N 
ATOM     33  CZ  ARG A   8      19.822  34.381  21.068  0.00  0.00    +0.342 C 
ATOM     34  NH2 ARG A   8      19.749  35.681  21.201  0.00  0.00    -0.292 N 
ATOM     35 HH21 ARG A   8      18.825  36.139  21.334  0.00  0.00    +0.255 HD
ATOM     36 HH22 ARG A   8      20.615  36.256  21.174  0.00  0.00    +0.255 HD
ATOM     37  NH1 ARG A   8      21.039  33.886  20.899  0.00  0.00    -0.292 N 
ATOM     38 HH11 ARG A   8      21.861  34.522  20.882  0.00  0.00    +0.255 HD
ATOM     39 HH12 ARG A   8      21.172  32.861  20.783  0.00  0.00    +0.255 HD
ATOM     40  HE  ARG A   8      18.947  32.602  20.994  0.00  0.00    +0.259 HD
ENDBRANCH  31  32
ENDBRANCH  30  31
ENDBRANCH  29  30
ENDBRANCH  15  29
ENDBRANCH  12  15
ENDBRANCH  10  11
ENDBRANCH   8  10
ENDBRANCH   5   6
BRANCH   5  41
ATOM     41  CB  ILE A   6      11.805  32.941  12.365  0.00  0.00    +0.027 C 
ATOM     42  CG2 ILE A   6      12.142  34.390  12.710  0.00  0.00    +0.002 C 
BRANCH  41  43
ATOM     43  CG1 ILE A   6      11.022  32.859  11.010  0.00  0.00    +0.002 C 
ATOM     44  CD1 ILE A   6      11.868  33.261   9.838  0.00  0.00    +0.000 C 
ENDBRANCH  41  43
ENDBRANCH   5  41
ENDBRANCH   2   5
BRANCH   1  45
ATOM     45  CA  ILE A   5      13.342  28.449  11.406  0.00  0.00    +0.149 C 
BRANCH  45  48
ATOM     46  C   ASN A   4      12.214  27.259   9.538  0.00  0.00    +0.241 C 
ATOM     47  O   ASN A   4      11.195  27.092  10.169  0.00  0.00    -0.273 OA
ATOM     48  N   ILE A   5      13.220  27.943  10.026  0.00  0.00    -0.297 N 
ATOM     49  H   ILE A   5      14.007  28.149   9.378  0.00  0.00    +0.150 HD
BRANCH  46  50
ATOM     50  CA  ASN A   4      12.347  26.708   8.132  0.00  0.00    +0.158 C 
BRANCH  50  53
ATOM     51  C   ILE A   3      12.714  24.381   8.673  0.00  0.00    +0.241 C 
ATOM     52  O   ILE A   3      13.845  24.645   9.125  0.00  0.00    -0.273 OA
ATOM     53  N   ASN A   4      11.942  25.317   8.104  0.00  0.00    -0.297 N 
ATOM     54  H   ASN A   4      11.051  25.045   7.642  0.00  0.00    +0.150 HD
BRANCH  51  55
ATOM     55  CA  ILE A   3      12.163  22.982   8.720  0.00  0.00    +0.149 C 
BRANCH  55  57
ATOM     56  C   PRO A   2      13.130  20.774   8.143  0.00  0.00    +0.241 C 
ATOM     57  N   ILE A   3      13.224  21.997   8.656  0.00  0.00    -0.297 N 
ATOM     58  H   ILE A   3      14.147  22.273   9.049  0.00  0.00    +0.150 HD
ATOM     59  O   PRO A   2      12.030  20.384   7.734  0.00  0.00    -0.273 OA
BRANCH  56  65
ATOM     60  C   THR A   1      16.055  21.398   7.299  0.00  0.00    +0.244 C 
ATOM     61  N   PRO A   2      15.633  20.578   8.264  0.00  0.00    -0.272 N 
ATOM     62  CD  PRO A   2      16.312  20.169   9.494  0.00  0.00    +0.094 C 
ATOM     63  CG  PRO A   2      15.688  18.843   9.840  0.00  0.00    +0.024 C 
ATOM     64  CB  PRO A   2      14.313  18.917   9.291  0.00  0.00    +0.031 C 
ATOM     65  CA  PRO A   2      14.361  19.874   8.084  0.00  0.00    +0.152 C 
ATOM     66  O   THR A   1      15.458  21.553   6.225  0.00  0.00    -0.273 OA
BRANCH  60  67
ATOM     67  CA  THR A   1      17.336  22.186   7.538  0.00  0.00    +0.172 C 
BRANCH  67  68
ATOM     68  N   THR A   1      18.138  22.214   6.329  0.00  0.00    -0.236 NA
ATOM     69  H   THR A   1      18.216  23.111   5.809  0.00  0.00    +0.142 HD
ENDBRANCH  67  68
BRANCH  67  70
ATOM     70  CB  THR A   1      17.044  23.587   8.111  0.00  0.00    +0.135 C 
ATOM     71  CG2 THR A   1      16.378  24.484   7.064  0.00  0.00    +0.034 C 
BRANCH  70  72
ATOM     72  OG1 THR A   1      16.205  23.395   9.260  0.00  0.00    -0.383 OA
ATOM     73  HG1 THR A   1      15.991  24.274   9.662  0.00  0.00    +0.210 HD
ENDBRANCH  70  72
ENDBRANCH  67  70
ENDBRANCH  60  67
ENDBRANCH  56  65
ENDBRANCH  55  57
BRANCH  55  74
ATOM     74  CB  ILE A   3      11.414  22.742  10.047  0.00  0.00    +0.027 C 
ATOM     75  CG2 ILE A   3      12.346  22.895  11.224  0.00  0.00    +0.002 C 
BRANCH  74  76
ATOM     76  CG1 ILE A   3      10.131  23.585  10.160  0.00  0.00    +0.002 C 
ATOM     77  CD1 ILE A   3       9.358  23.102  11.382  0.00  0.00    +0.000 C 
ENDBRANCH  74  76
ENDBRANCH  55  74
ENDBRANCH  51  55
ENDBRANCH  50  53
BRANCH  50  78
ATOM     78  CB  ASN A   4      11.483  27.571   7.211  0.00  0.00    +0.114 C 
BRANCH  78  79
ATOM     79  CG  ASN A   4      11.606  27.159   5.757  0.00  0.00    +0.222 C 
ATOM     80  OD1 ASN A   4      12.716  26.843   5.300  0.00  0.00    -0.275 OA
ATOM     81  ND2 ASN A   4      10.489  27.153   5.050  0.00  0.00    -0.329 N 
ATOM     82 HD21 ASN A   4       9.591  27.430   5.495  0.00  0.00    +0.145 HD
ATOM     83 HD22 ASN A   4      10.509  26.872   4.049  0.00  0.00    +0.145 HD
ENDBRANCH  78  79
ENDBRANCH  50  78
ENDBRANCH  46  50
ENDBRANCH  45  48
BRANCH  45  84
ATOM     84  CB  ILE A   5      14.476  27.713  12.154  0.00  0.00    +0.027 C 
ATOM     85  CG2 ILE A   5      14.820  28.319  13.502  0.00  0.00    +0.002 C 
BRANCH  84  86
ATOM     86  CG1 ILE A   5      14.137  26.226  12.274  0.00  0.00    +0.002 C 
ATOM     87  CD1 ILE A   5      15.307  25.368  12.663  0.00  0.00    +0.000 C 
ENDBRANCH  84  86
ENDBRANCH  45  84
ENDBRANCH   1  45
TORSDOF 33
REMARK  Name = ../refined-set-2016/3s43/3s43_pocket.pdb
REMARK  235 active torsions:
REMARK  status: ('A' for Active; 'I' for Inactive)
REMARK    1  A    between atoms: _1  and  _3
REMARK    2  A    between atoms: _3  and  _4
REMARK    3  A    between atoms: _3  and  _6
REMARK    4  A    between atoms: _6  and  _7
REMARK    5  A    between atoms: _7  and  _8
REMARK    6  A    between atoms: _8  and  _9
REMARK    7  A    between atoms: _18  and  _20
REMARK    8  A    between atoms: _20  and  _21
REMARK    9  A    between atoms: _20  and  _23
REMARK   10  A    between atoms: _23  and  _24
REMARK   11  A    between atoms: _27  and  _29
REMARK   12  A    between atoms: _29  and  _30
REMARK   13  A    between atoms: _29  and  _32
REMARK   14  A    between atoms: _32  and  _33
REMARK   15  A    between atoms: _36  and  _38
REMARK   16  A    between atoms: _38  and  _39
REMARK   17  A    between atoms: _38  and  _41
REMARK   18  A    between atoms: _41  and  _42
REMARK   19  A    between atoms: _45  and  _47
REMARK   20  A    between atoms: _47  and  _48
REMARK   21  A    between atoms: _47  and  _50
REMARK   22  A    between atoms: _50  and  _51
REMARK   23  A    between atoms: _54  and  _56
REMARK   24  A    between atoms: _56  and  _57
REMARK   25  A    between atoms: _59  and  _61
REMARK   26  A    between atoms: _61  and  _62
REMARK   27  A    between atoms: _65  and  _67
REMARK   28  A    between atoms: _67  and  _68
REMARK   29  A    between atoms: _67  and  _70
REMARK   30  A    between atoms: _70  and  _71
REMARK   31  A    between atoms: _74  and  _76
REMARK   32  A    between atoms: _76  and  _77
REMARK   33  A    between atoms: _76  and  _79
REMARK   34  A    between atoms: _79  and  _80
REMARK   35  A    between atoms: _83  and  _85
REMARK   36  A    between atoms: _85  and  _86
REMARK   37  A    between atoms: _85  and  _88
REMARK   38  A    between atoms: _88  and  _89
REMARK   39  A    between atoms: _92  and  _94
REMARK   40  A    between atoms: _94  and  _95
REMARK   41  A    between atoms: _94  and  _97
REMARK   42  A    between atoms: _97  and  _98
REMARK   43  A    between atoms: _101  and  _103
REMARK   44  A    between atoms: _103  and  _104
REMARK   45  A    between atoms: _103  and  _106
REMARK   46  A    between atoms: _106  and  _107
REMARK   47  A    between atoms: _107  and  _108
REMARK   48  A    between atoms: _108  and  _109
REMARK   49  A    between atoms: _109  and  _110
REMARK   50  A    between atoms: _114  and  _116
REMARK   51  A    between atoms: _116  and  _117
REMARK   52  A    between atoms: _116  and  _119
REMARK   53  A    between atoms: _119  and  _120
REMARK   54  A    between atoms: _120  and  _121
REMARK   55  A    between atoms: _123  and  _125
REMARK   56  A    between atoms: _125  and  _126
REMARK   57  A    between atoms: _125  and  _128
REMARK   58  A    between atoms: _131  and  _133
REMARK   59  A    between atoms: _133  and  _134
REMARK   60  A    between atoms: _136  and  _138
REMARK   61  A    between atoms: _138  and  _139
REMARK   62  A    between atoms: _141  and  _143
REMARK   63  A    between atoms: _143  and  _144
REMARK   64  A    between atoms: _143  and  _146
REMARK   65  A    between atoms: _146  and  _147
REMARK   66  A    between atoms: _150  and  _152
REMARK   67  A    between atoms: _152  and  _153
REMARK   68  A    between atoms: _155  and  _157
REMARK   69  A    between atoms: _157  and  _158
REMARK   70  A    between atoms: _160  and  _162
REMARK   71  A    between atoms: _162  and  _163
REMARK   72  A    between atoms: _162  and  _165
REMARK   73  A    between atoms: _165  and  _166
REMARK   74  A    between atoms: _172  and  _174
REMARK   75  A    between atoms: _174  and  _175
REMARK   76  A    between atoms: _174  and  _177
REMARK   77  A    between atoms: _177  and  _178
REMARK   78  A    between atoms: _181  and  _183
REMARK   79  A    between atoms: _183  and  _184
REMARK   80  A    between atoms: _183  and  _186
REMARK   81  A    between atoms: _189  and  _191
REMARK   82  A    between atoms: _191  and  _192
REMARK   83  A    between atoms: _191  and  _194
REMARK   84  A    between atoms: _194  and  _195
REMARK   85  A    between atoms: _198  and  _200
REMARK   86  A    between atoms: _200  and  _201
REMARK   87  A    between atoms: _200  and  _203
REMARK   88  A    between atoms: _203  and  _204
REMARK   89  A    between atoms: _208  and  _209
REMARK   90  A    between atoms: _214  and  _216
REMARK   91  A    between atoms: _216  and  _217
REMARK   92  A    between atoms: _216  and  _219
REMARK   93  A    between atoms: _219  and  _220
REMARK   94  A    between atoms: _223  and  _225
REMARK   95  A    between atoms: _225  and  _226
REMARK   96  A    between atoms: _225  and  _228
REMARK   97  A    between atoms: _228  and  _229
REMARK   98  A    between atoms: _234  and  _236
REMARK   99  A    between atoms: _236  and  _237
REMARK  100  A    between atoms: _236  and  _239
REMARK  101  A    between atoms: _239  and  _240
REMARK  102  A    between atoms: _243  and  _245
REMARK  103  A    between atoms: _245  and  _246
REMARK  104  A    between atoms: _245  and  _248
REMARK  105  A    between atoms: _248  and  _249
REMARK  106  A    between atoms: _252  and  _254
REMARK  107  A    between atoms: _254  and  _255
REMARK  108  A    between atoms: _257  and  _259
REMARK  109  A    between atoms: _259  and  _260
REMARK  110  A    between atoms: _259  and  _262
REMARK  111  A    between atoms: _262  and  _263
REMARK  112  A    between atoms: _263  and  _264
REMARK  113  A    between atoms: _264  and  _265
REMARK  114  A    between atoms: _274  and  _276
REMARK  115  A    between atoms: _276  and  _277
REMARK  116  A    between atoms: _276  and  _279
REMARK  117  A    between atoms: _279  and  _280
REMARK  118  A    between atoms: _285  and  _287
REMARK  119  A    between atoms: _287  and  _288
REMARK  120  A    between atoms: _287  and  _290
REMARK  121  A    between atoms: _290  and  _291
REMARK  122  A    between atoms: _291  and  _292
REMARK  123  A    between atoms: _292  and  _293
REMARK  124  A    between atoms: _302  and  _304
REMARK  125  A    between atoms: _304  and  _305
REMARK  126  A    between atoms: _304  and  _307
REMARK  127  A    between atoms: _307  and  _308
REMARK  128  A    between atoms: _311  and  _313
REMARK  129  A    between atoms: _313  and  _314
REMARK  130  A    between atoms: _313  and  _316
REMARK  131  A    between atoms: _316  and  _317
REMARK  132  A    between atoms: _320  and  _322
REMARK  133  A    between atoms: _322  and  _323
REMARK  134  A    between atoms: _322  and  _325
REMARK  135  A    between atoms: _325  and  _326
REMARK  136  A    between atoms: _329  and  _331
REMARK  137  A    between atoms: _331  and  _332
REMARK  138  A    between atoms: _331  and  _334
REMARK  139  A    between atoms: _334  and  _335
REMARK  140  A    between atoms: _338  and  _340
REMARK  141  A    between atoms: _340  and  _341
REMARK  142  A    between atoms: _343  and  _345
REMARK  143  A    between atoms: _345  and  _346
REMARK  144  A    between atoms: _349  and  _351
REMARK  145  A    between atoms: _351  and  _352
REMARK  146  A    between atoms: _351  and  _354
REMARK  147  A    between atoms: _354  and  _355
REMARK  148  A    between atoms: _358  and  _360
REMARK  149  A    between atoms: _360  and  _361
REMARK  150  A    between atoms: _360  and  _363
REMARK  151  A    between atoms: _363  and  _364
REMARK  152  A    between atoms: _367  and  _369
REMARK  153  A    between atoms: _369  and  _370
REMARK  154  A    between atoms: _369  and  _372
REMARK  155  A    between atoms: _372  and  _373
REMARK  156  A    between atoms: _376  and  _378
REMARK  157  A    between atoms: _378  and  _379
REMARK  158  A    between atoms: _378  and  _381
REMARK  159  A    between atoms: _381  and  _382
REMARK  160  A    between atoms: _385  and  _387
REMARK  161  A    between atoms: _387  and  _388
REMARK  162  A    between atoms: _387  and  _390
REMARK  163  A    between atoms: _390  and  _391
REMARK  164  A    between atoms: _394  and  _396
REMARK  165  A    between atoms: _396  and  _397
REMARK  166  A    between atoms: _396  and  _399
REMARK  167  A    between atoms: _399  and  _400
REMARK  168  A    between atoms: _400  and  _401
REMARK  169  A    between atoms: _401  and  _402
REMARK  170  A    between atoms: _402  and  _403
REMARK  171  A    between atoms: _407  and  _409
REMARK  172  A    between atoms: _409  and  _410
REMARK  173  A    between atoms: _409  and  _412
REMARK  174  A    between atoms: _412  and  _413
REMARK  175  A    between atoms: _413  and  _414
REMARK  176  A    between atoms: _416  and  _418
REMARK  177  A    between atoms: _418  and  _419
REMARK  178  A    between atoms: _418  and  _421
REMARK  179  A    between atoms: _424  and  _426
REMARK  180  A    between atoms: _426  and  _427
REMARK  181  A    between atoms: _429  and  _431
REMARK  182  A    between atoms: _431  and  _432
REMARK  183  A    between atoms: _434  and  _436
REMARK  184  A    between atoms: _436  and  _437
REMARK  185  A    between atoms: _436  and  _439
REMARK  186  A    between atoms: _439  and  _440
REMARK  187  A    between atoms: _443  and  _445
REMARK  188  A    between atoms: _445  and  _446
REMARK  189  A    between atoms: _448  and  _450
REMARK  190  A    between atoms: _450  and  _451
REMARK  191  A    between atoms: _453  and  _455
REMARK  192  A    between atoms: _455  and  _456
REMARK  193  A    between atoms: _455  and  _458
REMARK  194  A    between atoms: _458  and  _459
REMARK  195  A    between atoms: _465  and  _467
REMARK  196  A    between atoms: _467  and  _468
REMARK  197  A    between atoms: _467  and  _470
REMARK  198  A    between atoms: _470  and  _471
REMARK  199  A    between atoms: _474  and  _476
REMARK  200  A    between atoms: _476  and  _477
REMARK  201  A    between atoms: _476  and  _479
REMARK  202  A    between atoms: _479  and  _480
REMARK  203  A    between atoms: _483  and  _485
REMARK  204  A    between atoms: _485  and  _486
REMARK  205  A    between atoms: _485  and  _488
REMARK  206  A    between atoms: _488  and  _489
REMARK  207  A    between atoms: _493  and  _494
REMARK  208  A    between atoms: _499  and  _501
REMARK  209  A    between atoms: _501  and  _502
REMARK  210  A    between atoms: _501  and  _504
REMARK  211  A    between atoms: _504  and  _505
REMARK  212  A    between atoms: _508  and  _510
REMARK  213  A    between atoms: _510  and  _511
REMARK  214  A    between atoms: _510  and  _513
REMARK  215  A    between atoms: _513  and  _514
REMARK  216  A    between atoms: _519  and  _521
REMARK  217  A    between atoms: _521  and  _522
REMARK  218  A    between atoms: _521  and  _524
REMARK  219  A    between atoms: _524  and  _525
REMARK  220  A    between atoms: _528  and  _530
REMARK  221  A    between atoms: _530  and  _531
REMARK  222  A    between atoms: _530  and  _533
REMARK  223  A    between atoms: _533  and  _534
REMARK  224  A    between atoms: _537  and  _539
REMARK  225  A    between atoms: _539  and  _540
REMARK  226  A    between atoms: _542  and  _544
REMARK  227  A    between atoms: _544  and  _545
REMARK  228  A    between atoms: _544  and  _547
REMARK  229  A    between atoms: _547  and  _548
REMARK  230  A    between atoms: _548  and  _549
REMARK  231  A    between atoms: _549  and  _550
REMARK  232  A    between atoms: _559  and  _561
REMARK  233  A    between atoms: _561  and  _562
REMARK  234  A    between atoms: _561  and  _564
REMARK  235  A    between atoms: _564  and  _565
REMARK                            x       y       z     vdW  Elec       q    Type
REMARK                         _______ _______ _______ _____ _____    ______ ____
ROOT
ATOM      1  NE  ARG A   1      22.724  30.141  22.636  0.00  0.00    -0.265 N 
ATOM      2  CZ  ARG A   1      23.720  29.259  22.564  0.00  0.00    +0.342 C 
ATOM      3  NH2 ARG A   1      24.298  28.808  23.665  0.00  0.00    -0.292 N 
ATOM      4 HH21 ARG A   1      23.976  29.142  24.596  0.00  0.00    +0.255 HD
ATOM      5 HH22 ARG A   1      25.075  28.120  23.600  0.00  0.00    +0.255 HD
ATOM      6  NH1 ARG A   1      24.140  28.819  21.386  0.00  0.00    -0.292 N 
ATOM      7 HH11 ARG A   1      24.918  28.131  21.335  0.00  0.00    +0.255 HD
ATOM      8 HH12 ARG A   1      23.692  29.162  20.513  0.00  0.00    +0.255 HD
ATOM      9  HE  ARG A   1      22.291  30.469  21.749  0.00  0.00    +0.259 HD
ENDROOT
BRANCH   1  10
ATOM     10  CD  ARG A   1      22.212  30.669  23.889  0.00  0.00    +0.174 C 
BRANCH  10  11
ATOM     11  CG  ARG A   1      21.156  31.739  23.631  0.00  0.00    +0.045 C 
BRANCH  11  12
ATOM     12  CB  ARG A   1      20.460  32.089  24.925  0.00  0.00    +0.029 C 
BRANCH  12  13
ATOM     13  CA  ARG A   1      19.493  33.256  24.806  0.00  0.00    +0.133 C 
BRANCH  13  14
ATOM     14  N   ARG A   1      20.222  34.512  24.683  0.00  0.00    -0.239 NA
ATOM     15  H   ARG A   1      21.262  34.533  24.699  0.00  0.00    +0.142 HD
ENDBRANCH  13  14
BRANCH  13  16
ATOM     16  C   ARG A   1      18.595  33.253  26.031  0.00  0.00    +0.224 C 
ATOM     17  O   ARG A   1      19.017  33.709  27.078  0.00  0.00    -0.287 OA
ENDBRANCH  13  16
ENDBRANCH  12  13
ENDBRANCH  11  12
ENDBRANCH  10  11
ENDBRANCH   1  10
TORSDOF 6
REMARK  Name = ../refined-set-2016/3s43/3s43_pocket.pdb
REMARK  235 active torsions:
REMARK  status: ('A' for Active; 'I' for Inactive)
REMARK    1  A    between atoms: _1  and  _3
REMARK    2  A    between atoms: _3  and  _4
REMARK    3  A    between atoms: _3  and  _6
REMARK    4  A    between atoms: _6  and  _7
REMARK    5  A    between atoms: _7  and  _8
REMARK    6  A    between atoms: _8  and  _9
REMARK    7  A    between atoms: _18  and  _20
REMARK    8  A    between atoms: _20  and  _21
REMARK    9  A    between atoms: _20  and  _23
REMARK   10  A    between atoms: _23  and  _24
REMARK   11  A    between atoms: _27  and  _29
REMARK   12  A    between atoms: _29  and  _30
REMARK   13  A    between atoms: _29  and  _32
REMARK   14  A    between atoms: _32  and  _33
REMARK   15  A    between atoms: _36  and  _38
REMARK   16  A    between atoms: _38  and  _39
REMARK   17  A    between atoms: _38  and  _41
REMARK   18  A    between atoms: _41  and  _42
REMARK   19  A    between atoms: _45  and  _47
REMARK   20  A    between atoms: _47  and  _48
REMARK   21  A    between atoms: _47  and  _50
REMARK   22  A    between atoms: _50  and  _51
REMARK   23  A    between atoms: _54  and  _56
REMARK   24  A    between atoms: _56  and  _57
REMARK   25  A    between atoms: _59  and  _61
REMARK   26  A    between atoms: _61  and  _62
REMARK   27  A    between atoms: _65  and  _67
REMARK   28  A    between atoms: _67  and  _68
REMARK   29  A    between atoms: _67  and  _70
REMARK   30  A    between atoms: _70  and  _71
REMARK   31  A    between atoms: _74  and  _76
REMARK   32  A    between atoms: _76  and  _77
REMARK   33  A    between atoms: _76  and  _79
REMARK   34  A    between atoms: _79  and  _80
REMARK   35  A    between atoms: _83  and  _85
REMARK   36  A    between atoms: _85  and  _86
REMARK   37  A    between atoms: _85  and  _88
REMARK   38  A    between atoms: _88  and  _89
REMARK   39  A    between atoms: _92  and  _94
REMARK   40  A    between atoms: _94  and  _95
REMARK   41  A    between atoms: _94  and  _97
REMARK   42  A    between atoms: _97  and  _98
REMARK   43  A    between atoms: _101  and  _103
REMARK   44  A    between atoms: _103  and  _104
REMARK   45  A    between atoms: _103  and  _106
REMARK   46  A    between atoms: _106  and  _107
REMARK   47  A    between atoms: _107  and  _108
REMARK   48  A    between atoms: _108  and  _109
REMARK   49  A    between atoms: _109  and  _110
REMARK   50  A    between atoms: _114  and  _116
REMARK   51  A    between atoms: _116  and  _117
REMARK   52  A    between atoms: _116  and  _119
REMARK   53  A    between atoms: _119  and  _120
REMARK   54  A    between atoms: _120  and  _121
REMARK   55  A    between atoms: _123  and  _125
REMARK   56  A    between atoms: _125  and  _126
REMARK   57  A    between atoms: _125  and  _128
REMARK   58  A    between atoms: _131  and  _133
REMARK   59  A    between atoms: _133  and  _134
REMARK   60  A    between atoms: _136  and  _138
REMARK   61  A    between atoms: _138  and  _139
REMARK   62  A    between atoms: _141  and  _143
REMARK   63  A    between atoms: _143  and  _144
REMARK   64  A    between atoms: _143  and  _146
REMARK   65  A    between atoms: _146  and  _147
REMARK   66  A    between atoms: _150  and  _152
REMARK   67  A    between atoms: _152  and  _153
REMARK   68  A    between atoms: _155  and  _157
REMARK   69  A    between atoms: _157  and  _158
REMARK   70  A    between atoms: _160  and  _162
REMARK   71  A    between atoms: _162  and  _163
REMARK   72  A    between atoms: _162  and  _165
REMARK   73  A    between atoms: _165  and  _166
REMARK   74  A    between atoms: _172  and  _174
REMARK   75  A    between atoms: _174  and  _175
REMARK   76  A    between atoms: _174  and  _177
REMARK   77  A    between atoms: _177  and  _178
REMARK   78  A    between atoms: _181  and  _183
REMARK   79  A    between atoms: _183  and  _184
REMARK   80  A    between atoms: _183  and  _186
REMARK   81  A    between atoms: _189  and  _191
REMARK   82  A    between atoms: _191  and  _192
REMARK   83  A    between atoms: _191  and  _194
REMARK   84  A    between atoms: _194  and  _195
REMARK   85  A    between atoms: _198  and  _200
REMARK   86  A    between atoms: _200  and  _201
REMARK   87  A    between atoms: _200  and  _203
REMARK   88  A    between atoms: _203  and  _204
REMARK   89  A    between atoms: _208  and  _209
REMARK   90  A    between atoms: _214  and  _216
REMARK   91  A    between atoms: _216  and  _217
REMARK   92  A    between atoms: _216  and  _219
REMARK   93  A    between atoms: _219  and  _220
REMARK   94  A    between atoms: _223  and  _225
REMARK   95  A    between atoms: _225  and  _226
REMARK   96  A    between atoms: _225  and  _228
REMARK   97  A    between atoms: _228  and  _229
REMARK   98  A    between atoms: _234  and  _236
REMARK   99  A    between atoms: _236  and  _237
REMARK  100  A    between atoms: _236  and  _239
REMARK  101  A    between atoms: _239  and  _240
REMARK  102  A    between atoms: _243  and  _245
REMARK  103  A    between atoms: _245  and  _246
REMARK  104  A    between atoms: _245  and  _248
REMARK  105  A    between atoms: _248  and  _249
REMARK  106  A    between atoms: _252  and  _254
REMARK  107  A    between atoms: _254  and  _255
REMARK  108  A    between atoms: _257  and  _259
REMARK  109  A    between atoms: _259  and  _260
REMARK  110  A    between atoms: _259  and  _262
REMARK  111  A    between atoms: _262  and  _263
REMARK  112  A    between atoms: _263  and  _264
REMARK  113  A    between atoms: _264  and  _265
REMARK  114  A    between atoms: _274  and  _276
REMARK  115  A    between atoms: _276  and  _277
REMARK  116  A    between atoms: _276  and  _279
REMARK  117  A    between atoms: _279  and  _280
REMARK  118  A    between atoms: _285  and  _287
REMARK  119  A    between atoms: _287  and  _288
REMARK  120  A    between atoms: _287  and  _290
REMARK  121  A    between atoms: _290  and  _291
REMARK  122  A    between atoms: _291  and  _292
REMARK  123  A    between atoms: _292  and  _293
REMARK  124  A    between atoms: _302  and  _304
REMARK  125  A    between atoms: _304  and  _305
REMARK  126  A    between atoms: _304  and  _307
REMARK  127  A    between atoms: _307  and  _308
REMARK  128  A    between atoms: _311  and  _313
REMARK  129  A    between atoms: _313  and  _314
REMARK  130  A    between atoms: _313  and  _316
REMARK  131  A    between atoms: _316  and  _317
REMARK  132  A    between atoms: _320  and  _322
REMARK  133  A    between atoms: _322  and  _323
REMARK  134  A    between atoms: _322  and  _325
REMARK  135  A    between atoms: _325  and  _326
REMARK  136  A    between atoms: _329  and  _331
REMARK  137  A    between atoms: _331  and  _332
REMARK  138  A    between atoms: _331  and  _334
REMARK  139  A    between atoms: _334  and  _335
REMARK  140  A    between atoms: _338  and  _340
REMARK  141  A    between atoms: _340  and  _341
REMARK  142  A    between atoms: _343  and  _345
REMARK  143  A    between atoms: _345  and  _346
REMARK  144  A    between atoms: _349  and  _351
REMARK  145  A    between atoms: _351  and  _352
REMARK  146  A    between atoms: _351  and  _354
REMARK  147  A    between atoms: _354  and  _355
REMARK  148  A    between atoms: _358  and  _360
REMARK  149  A    between atoms: _360  and  _361
REMARK  150  A    between atoms: _360  and  _363
REMARK  151  A    between atoms: _363  and  _364
REMARK  152  A    between atoms: _367  and  _369
REMARK  153  A    between atoms: _369  and  _370
REMARK  154  A    between atoms: _369  and  _372
REMARK  155  A    between atoms: _372  and  _373
REMARK  156  A    between atoms: _376  and  _378
REMARK  157  A    between atoms: _378  and  _379
REMARK  158  A    between atoms: _378  and  _381
REMARK  159  A    between atoms: _381  and  _382
REMARK  160  A    between atoms: _385  and  _387
REMARK  161  A    between atoms: _387  and  _388
REMARK  162  A    between atoms: _387  and  _390
REMARK  163  A    between atoms: _390  and  _391
REMARK  164  A    between atoms: _394  and  _396
REMARK  165  A    between atoms: _396  and  _397
REMARK  166  A    between atoms: _396  and  _399
REMARK  167  A    between atoms: _399  and  _400
REMARK  168  A    between atoms: _400  and  _401
REMARK  169  A    between atoms: _401  and  _402
REMARK  170  A    between atoms: _402  and  _403
REMARK  171  A    between atoms: _407  and  _409
REMARK  172  A    between atoms: _409  and  _410
REMARK  173  A    between atoms: _409  and  _412
REMARK  174  A    between atoms: _412  and  _413
REMARK  175  A    between atoms: _413  and  _414
REMARK  176  A    between atoms: _416  and  _418
REMARK  177  A    between atoms: _418  and  _419
REMARK  178  A    between atoms: _418  and  _421
REMARK  179  A    between atoms: _424  and  _426
REMARK  180  A    between atoms: _426  and  _427
REMARK  181  A    between atoms: _429  and  _431
REMARK  182  A    between atoms: _431  and  _432
REMARK  183  A    between atoms: _434  and  _436
REMARK  184  A    between atoms: _436  and  _437
REMARK  185  A    between atoms: _436  and  _439
REMARK  186  A    between atoms: _439  and  _440
REMARK  187  A    between atoms: _443  and  _445
REMARK  188  A    between atoms: _445  and  _446
REMARK  189  A    between atoms: _448  and  _450
REMARK  190  A    between atoms: _450  and  _451
REMARK  191  A    between atoms: _453  and  _455
REMARK  192  A    between atoms: _455  and  _456
REMARK  193  A    between atoms: _455  and  _458
REMARK  194  A    between atoms: _458  and  _459
REMARK  195  A    between atoms: _465  and  _467
REMARK  196  A    between atoms: _467  and  _468
REMARK  197  A    between atoms: _467  and  _470
REMARK  198  A    between atoms: _470  and  _471
REMARK  199  A    between atoms: _474  and  _476
REMARK  200  A    between atoms: _476  and  _477
REMARK  201  A    between atoms: _476  and  _479
REMARK  202  A    between atoms: _479  and  _480
REMARK  203  A    between atoms: _483  and  _485
REMARK  204  A    between atoms: _485  and  _486
REMARK  205  A    between atoms: _485  and  _488
REMARK  206  A    between atoms: _488  and  _489
REMARK  207  A    between atoms: _493  and  _494
REMARK  208  A    between atoms: _499  and  _501
REMARK  209  A    between atoms: _501  and  _502
REMARK  210  A    between atoms: _501  and  _504
REMARK  211  A    between atoms: _504  and  _505
REMARK  212  A    between atoms: _508  and  _510
REMARK  213  A    between atoms: _510  and  _511
REMARK  214  A    between atoms: _510  and  _513
REMARK  215  A    between atoms: _513  and  _514
REMARK  216  A    between atoms: _519  and  _521
REMARK  217  A    between atoms: _521  and  _522
REMARK  218  A    between atoms: _521  and  _524
REMARK  219  A    between atoms: _524  and  _525
REMARK  220  A    between atoms: _528  and  _530
REMARK  221  A    between atoms: _530  and  _531
REMARK  222  A    between atoms: _530  and  _533
REMARK  223  A    between atoms: _533  and  _534
REMARK  224  A    between atoms: _537  and  _539
REMARK  225  A    between atoms: _539  and  _540
REMARK  226  A    between atoms: _542  and  _544
REMARK  227  A    between atoms: _544  and  _545
REMARK  228  A    between atoms: _544  and  _547
REMARK  229  A    between atoms: _547  and  _548
REMARK  230  A    between atoms: _548  and  _549
REMARK  231  A    between atoms: _549  and  _550
REMARK  232  A    between atoms: _559  and  _561
REMARK  233  A    between atoms: _561  and  _562
REMARK  234  A    between atoms: _561  and  _564
REMARK  235  A    between atoms: _564  and  _565
REMARK                            x       y       z     vdW  Elec       q    Type
REMARK                         _______ _______ _______ _____ _____    ______ ____
ROOT
ATOM      1  C   ALA A   6       9.971  21.626  21.009  0.00  0.00    +0.241 C 
ATOM      2  O   ALA A   6       9.309  22.186  21.901  0.00  0.00    -0.273 OA
ATOM      3  N   ASP A   7       9.539  20.541  20.396  0.00  0.00    -0.297 N 
ATOM      4  H   ASP A   7      10.101  20.114  19.632  0.00  0.00    +0.150 HD
ENDROOT
BRANCH   1   5
ATOM      5  CA  ALA A   6      11.328  22.176  20.605  0.00  0.00    +0.149 C 
ATOM      6  CB  ALA A   6      12.256  22.141  21.795  0.00  0.00    +0.031 C 
BRANCH   5   8
ATOM      7  C   GLY A   5      11.228  23.867  18.838  0.00  0.00    +0.243 C 
ATOM      8  N   ALA A   6      11.197  23.531  20.123  0.00  0.00    -0.297 N 
ATOM      9  H   ALA A   6      11.071  24.289  20.824  0.00  0.00    +0.150 HD
ATOM     10  O   GLY A   5      11.389  23.030  17.940  0.00  0.00    -0.273 OA
BRANCH   7  11
ATOM     11  CA  GLY A   5      11.055  25.330  18.480  0.00  0.00    +0.176 C 
BRANCH  11  14
ATOM     12  C   THR A   4       9.589  26.384  20.161  0.00  0.00    +0.243 C 
ATOM     13  O   THR A   4       8.568  25.886  19.701  0.00  0.00    -0.273 OA
ATOM     14  N   GLY A   5      10.793  26.201  19.591  0.00  0.00    -0.295 N 
ATOM     15  H   GLY A   5      11.596  26.731  19.985  0.00  0.00    +0.150 HD
BRANCH  12  16
ATOM     16  CA  THR A   4       9.536  27.275  21.395  0.00  0.00    +0.176 C 
BRANCH  16  19
ATOM     17  C   ASP A   3      11.457  26.421  22.630  0.00  0.00    +0.241 C 
ATOM     18  O   ASP A   3      10.942  25.302  22.627  0.00  0.00    -0.273 OA
ATOM     19  N   THR A   4      10.835  27.468  22.045  0.00  0.00    -0.295 N 
ATOM     20  H   THR A   4      11.277  28.409  22.056  0.00  0.00    +0.150 HD
BRANCH  17  21
ATOM     21  CA  ASP A   3      12.790  26.711  23.253  0.00  0.00    +0.160 C 
BRANCH  21  23
ATOM     22  C   LEU A   2      13.188  28.040  25.282  0.00  0.00    +0.241 C 
ATOM     23  N   ASP A   3      12.676  26.961  24.700  0.00  0.00    -0.297 N 
ATOM     24  H   ASP A   3      12.175  26.266  25.289  0.00  0.00    +0.150 HD
ATOM     25  O   LEU A   2      13.587  29.007  24.674  0.00  0.00    -0.273 OA
BRANCH  22  26
ATOM     26  CA  LEU A   2      13.315  28.044  26.795  0.00  0.00    +0.149 C 
BRANCH  26  28
ATOM     27  C   LEU A   1      15.473  26.948  27.119  0.00  0.00    +0.238 C 
ATOM     28  N   LEU A   2      14.739  28.041  27.169  0.00  0.00    -0.297 N 
ATOM     29  H   LEU A   2      15.179  28.930  27.482  0.00  0.00    +0.150 HD
ATOM     30  O   LEU A   1      14.989  25.825  26.854  0.00  0.00    -0.274 OA
BRANCH  27  31
ATOM     31  CA  LEU A   1      16.972  27.065  27.366  0.00  0.00    +0.145 C 
BRANCH  31  32
ATOM     32  N   LEU A   1      17.381  26.168  28.444  0.00  0.00    -0.238 NA
ATOM     33  H   LEU A   1      17.571  25.174  28.206  0.00  0.00    +0.142 HD
ENDBRANCH  31  32
BRANCH  31  34
ATOM     34  CB  LEU A   1      17.747  26.695  26.098  0.00  0.00    +0.026 C 
BRANCH  34  35
ATOM     35  CG  LEU A   1      17.492  27.490  24.833  0.00  0.00    +0.002 C 
ATOM     36  CD2 LEU A   1      17.994  28.898  25.012  0.00  0.00    +0.000 C 
ATOM     37  CD1 LEU A   1      18.160  26.803  23.637  0.00  0.00    +0.000 C 
ENDBRANCH  34  35
ENDBRANCH  31  34
ENDBRANCH  27  31
ENDBRANCH  26  28
BRANCH  26  38
ATOM     38  CB  LEU A   2      12.575  29.256  27.363  0.00  0.00    +0.029 C 
BRANCH  38  39
ATOM     39  CG  LEU A   2      12.639  29.402  28.882  0.00  0.00    +0.002 C 
ATOM     40  CD2 LEU A   2      12.147  28.164  29.631  0.00  0.00    +0.000 C 
ATOM     41  CD1 LEU A   2      11.856  30.615  29.357  0.00  0.00    +0.000 C 
ENDBRANCH  38  39
ENDBRANCH  26  38
ENDBRANCH  22  26
ENDBRANCH  21  23
BRANCH  21  42
ATOM     42  CB  ASP A   3      13.769  25.540  23.038  0.00  0.00    +0.143 C 
BRANCH  42  43
ATOM     43  CG  ASP A   3      14.224  25.218  21.652  0.00  0.00    +0.367 C 
ATOM     44  OD2 ASP A   3      15.174  24.444  21.456  0.00  0.00    -0.246 OA
ATOM     45  OD1 ASP A   3      13.625  25.816  20.737  0.00  0.00    -0.246 OA
ENDBRANCH  42  43
ENDBRANCH  21  42
ENDBRANCH  17  21
ENDBRANCH  16  19
BRANCH  16  46
ATOM     46  CB  THR A   4       8.949  28.650  20.985  0.00  0.00    +0.137 C 
ATOM     47  CG2 THR A   4       8.660  29.532  22.193  0.00  0.00    +0.034 C 
BRANCH  46  48
ATOM     48  OG1 THR A   4       9.808  29.361  20.119  0.00  0.00    -0.382 OA
ATOM     49  HG1 THR A   4       9.956  28.832  19.296  0.00  0.00    +0.210 HD
ENDBRANCH  46  48
ENDBRANCH  16  46
ENDBRANCH  12  16
ENDBRANCH  11  14
ENDBRANCH   7  11
ENDBRANCH   5   8
ENDBRANCH   1   5
BRANCH   3  50
ATOM     50  CA  ASP A   7       8.289  19.953  20.789  0.00  0.00    +0.160 C 
BRANCH  50  51
ATOM     51  C   ASP A   7       8.357  19.434  22.229  0.00  0.00    +0.241 C 
ATOM     52  O   ASP A   7       7.370  19.496  22.988  0.00  0.00    -0.273 OA
ATOM     53  N   ASP A   8       9.494  18.904  22.586  0.00  0.00    -0.297 N 
ATOM     54  H   ASP A   8      10.295  19.077  21.946  0.00  0.00    +0.150 HD
BRANCH  53  55
ATOM     55  CA  ASP A   8       9.789  18.091  23.780  0.00  0.00    +0.160 C 
BRANCH  55  56
ATOM     56  C   ASP A   8      10.838  18.766  24.666  0.00  0.00    +0.241 C 
ATOM     57  N   THR A   9      10.874  18.370  25.922  0.00  0.00    -0.295 N 
ATOM     58  H   THR A   9      10.138  17.706  26.237  0.00  0.00    +0.150 HD
ATOM     59  O   ASP A   8      11.605  19.658  24.254  0.00  0.00    -0.273 OA
BRANCH  57  60
ATOM     60  CA  THR A   9      11.864  18.789  26.903  0.00  0.00    +0.176 C 
BRANCH  60  61
ATOM     61  C   THR A   9      12.923  17.728  26.974  0.00  0.00    +0.243 C 
ATOM     62  O   THR A   9      12.599  16.549  27.125  0.00  0.00    -0.273 OA
ATOM     63  N   ILE A  10      14.171  18.121  26.828  0.00  0.00    -0.297 N 
ATOM     64  H   ILE A  10      14.373  19.133  26.700  0.00  0.00    +0.150 HD
BRANCH  63  65
ATOM     65  CA  ILE A  10      15.281  17.168  26.842  0.00  0.00    +0.149 C 
BRANCH  65  66
ATOM     66  C   ILE A  10      16.404  17.727  27.686  0.00  0.00    +0.241 C 
ATOM     67  N   ILE A  11      16.893  16.862  28.562  0.00  0.00    -0.298 N 
ATOM     68  H   ILE A  11      16.508  15.898  28.618  0.00  0.00    +0.150 HD
ATOM     69  O   ILE A  10      16.825  18.881  27.532  0.00  0.00    -0.273 OA
BRANCH  67  70
ATOM     70  CA  ILE A  11      17.971  17.272  29.443  0.00  0.00    +0.137 C 
BRANCH  70  71
ATOM     71  C   ILE A  11      19.133  16.315  29.299  0.00  0.00    +0.227 C 
ATOM     72  O   ILE A  11      19.016  15.185  28.847  0.00  0.00    -0.286 OA
ENDBRANCH  70  71
BRANCH  70  73
ATOM     73  CB  ILE A  11      17.480  17.298  30.889  0.00  0.00    +0.026 C 
ATOM     74  CG2 ILE A  11      16.346  18.296  31.021  0.00  0.00    +0.002 C 
BRANCH  73  75
ATOM     75  CG1 ILE A  11      17.098  15.917  31.415  0.00  0.00    +0.002 C 
ATOM     76  CD1 ILE A  11      16.603  16.024  32.854  0.00  0.00    +0.000 C 
ENDBRANCH  73  75
ENDBRANCH  70  73
ENDBRANCH  67  70
ENDBRANCH  65  66
BRANCH  65  77
ATOM     77  CB  ILE A  10      15.740  16.805  25.406  0.00  0.00    +0.027 C 
ATOM     78  CG2 ILE A  10      16.071  18.051  24.622  0.00  0.00    +0.002 C 
BRANCH  77  79
ATOM     79  CG1 ILE A  10      16.804  15.719  25.417  0.00  0.00    +0.002 C 
ATOM     80  CD1 ILE A  10      16.973  15.029  24.073  0.00  0.00    +0.000 C 
ENDBRANCH  77  79
ENDBRANCH  65  77
ENDBRANCH  63  65
ENDBRANCH  60  61
BRANCH  60  81
ATOM     81  CB  THR A   9      11.174  18.974  28.276  0.00  0.00    +0.137 C 
ATOM     82  CG2 THR A   9      12.120  19.232  29.413  0.00  0.00    +0.034 C 
BRANCH  81  83
ATOM     83  OG1 THR A   9      10.291  20.126  28.162  0.00  0.00    -0.382 OA
ATOM     84  HG1 THR A   9       9.620  19.957  27.454  0.00  0.00    +0.210 HD
ENDBRANCH  81  83
ENDBRANCH  60  81
ENDBRANCH  57  60
ENDBRANCH  55  56
BRANCH  55  85
ATOM     85  CB  ASP A   8      10.301  16.708  23.362  0.00  0.00    +0.143 C 
BRANCH  85  86
ATOM     86  CG  ASP A   8       9.532  16.041  22.275  0.00  0.00    +0.367 C 
ATOM     87  OD2 ASP A   8       8.325  15.893  22.565  0.00  0.00    -0.246 OA
ATOM     88  OD1 ASP A   8      10.032  15.597  21.204  0.00  0.00    -0.246 OA
ENDBRANCH  85  86
ENDBRANCH  55  85
ENDBRANCH  53  55
ENDBRANCH  50  51
BRANCH  50  89
ATOM     89  CB  ASP A   7       7.887  18.768  19.868  0.00  0.00    +0.143 C 
BRANCH  89  90
ATOM     90  CG  ASP A   7       7.637  19.105  18.429  0.00  0.00    +0.367 C 
ATOM     91  OD2 ASP A   7       7.280  20.246  18.087  0.00  0.00    -0.246 OA
ATOM     92  OD1 ASP A   7       7.813  18.179  17.569  0.00  0.00    -0.246 OA
ENDBRANCH  89  90
ENDBRANCH  50  89
ENDBRANCH   3  50
TORSDOF 40
REMARK  Name = ../refined-set-2016/3s43/3s43_pocket.pdb
REMARK  235 active torsions:
REMARK  status: ('A' for Active; 'I' for Inactive)
REMARK    1  A    between atoms: _1  and  _3
REMARK    2  A    between atoms: _3  and  _4
REMARK    3  A    between atoms: _3  and  _6
REMARK    4  A    between atoms: _6  and  _7
REMARK    5  A    between atoms: _7  and  _8
REMARK    6  A    between atoms: _8  and  _9
REMARK    7  A    between atoms: _18  and  _20
REMARK    8  A    between atoms: _20  and  _21
REMARK    9  A    between atoms: _20  and  _23
REMARK   10  A    between atoms: _23  and  _24
REMARK   11  A    between atoms: _27  and  _29
REMARK   12  A    between atoms: _29  and  _30
REMARK   13  A    between atoms: _29  and  _32
REMARK   14  A    between atoms: _32  and  _33
REMARK   15  A    between atoms: _36  and  _38
REMARK   16  A    between atoms: _38  and  _39
REMARK   17  A    between atoms: _38  and  _41
REMARK   18  A    between atoms: _41  and  _42
REMARK   19  A    between atoms: _45  and  _47
REMARK   20  A    between atoms: _47  and  _48
REMARK   21  A    between atoms: _47  and  _50
REMARK   22  A    between atoms: _50  and  _51
REMARK   23  A    between atoms: _54  and  _56
REMARK   24  A    between atoms: _56  and  _57
REMARK   25  A    between atoms: _59  and  _61
REMARK   26  A    between atoms: _61  and  _62
REMARK   27  A    between atoms: _65  and  _67
REMARK   28  A    between atoms: _67  and  _68
REMARK   29  A    between atoms: _67  and  _70
REMARK   30  A    between atoms: _70  and  _71
REMARK   31  A    between atoms: _74  and  _76
REMARK   32  A    between atoms: _76  and  _77
REMARK   33  A    between atoms: _76  and  _79
REMARK   34  A    between atoms: _79  and  _80
REMARK   35  A    between atoms: _83  and  _85
REMARK   36  A    between atoms: _85  and  _86
REMARK   37  A    between atoms: _85  and  _88
REMARK   38  A    between atoms: _88  and  _89
REMARK   39  A    between atoms: _92  and  _94
REMARK   40  A    between atoms: _94  and  _95
REMARK   41  A    between atoms: _94  and  _97
REMARK   42  A    between atoms: _97  and  _98
REMARK   43  A    between atoms: _101  and  _103
REMARK   44  A    between atoms: _103  and  _104
REMARK   45  A    between atoms: _103  and  _106
REMARK   46  A    between atoms: _106  and  _107
REMARK   47  A    between atoms: _107  and  _108
REMARK   48  A    between atoms: _108  and  _109
REMARK   49  A    between atoms: _109  and  _110
REMARK   50  A    between atoms: _114  and  _116
REMARK   51  A    between atoms: _116  and  _117
REMARK   52  A    between atoms: _116  and  _119
REMARK   53  A    between atoms: _119  and  _120
REMARK   54  A    between atoms: _120  and  _121
REMARK   55  A    between atoms: _123  and  _125
REMARK   56  A    between atoms: _125  and  _126
REMARK   57  A    between atoms: _125  and  _128
REMARK   58  A    between atoms: _131  and  _133
REMARK   59  A    between atoms: _133  and  _134
REMARK   60  A    between atoms: _136  and  _138
REMARK   61  A    between atoms: _138  and  _139
REMARK   62  A    between atoms: _141  and  _143
REMARK   63  A    between atoms: _143  and  _144
REMARK   64  A    between atoms: _143  and  _146
REMARK   65  A    between atoms: _146  and  _147
REMARK   66  A    between atoms: _150  and  _152
REMARK   67  A    between atoms: _152  and  _153
REMARK   68  A    between atoms: _155  and  _157
REMARK   69  A    between atoms: _157  and  _158
REMARK   70  A    between atoms: _160  and  _162
REMARK   71  A    between atoms: _162  and  _163
REMARK   72  A    between atoms: _162  and  _165
REMARK   73  A    between atoms: _165  and  _166
REMARK   74  A    between atoms: _172  and  _174
REMARK   75  A    between atoms: _174  and  _175
REMARK   76  A    between atoms: _174  and  _177
REMARK   77  A    between atoms: _177  and  _178
REMARK   78  A    between atoms: _181  and  _183
REMARK   79  A    between atoms: _183  and  _184
REMARK   80  A    between atoms: _183  and  _186
REMARK   81  A    between atoms: _189  and  _191
REMARK   82  A    between atoms: _191  and  _192
REMARK   83  A    between atoms: _191  and  _194
REMARK   84  A    between atoms: _194  and  _195
REMARK   85  A    between atoms: _198  and  _200
REMARK   86  A    between atoms: _200  and  _201
REMARK   87  A    between atoms: _200  and  _203
REMARK   88  A    between atoms: _203  and  _204
REMARK   89  A    between atoms: _208  and  _209
REMARK   90  A    between atoms: _214  and  _216
REMARK   91  A    between atoms: _216  and  _217
REMARK   92  A    between atoms: _216  and  _219
REMARK   93  A    between atoms: _219  and  _220
REMARK   94  A    between atoms: _223  and  _225
REMARK   95  A    between atoms: _225  and  _226
REMARK   96  A    between atoms: _225  and  _228
REMARK   97  A    between atoms: _228  and  _229
REMARK   98  A    between atoms: _234  and  _236
REMARK   99  A    between atoms: _236  and  _237
REMARK  100  A    between atoms: _236  and  _239
REMARK  101  A    between atoms: _239  and  _240
REMARK  102  A    between atoms: _243  and  _245
REMARK  103  A    between atoms: _245  and  _246
REMARK  104  A    between atoms: _245  and  _248
REMARK  105  A    between atoms: _248  and  _249
REMARK  106  A    between atoms: _252  and  _254
REMARK  107  A    between atoms: _254  and  _255
REMARK  108  A    between atoms: _257  and  _259
REMARK  109  A    between atoms: _259  and  _260
REMARK  110  A    between atoms: _259  and  _262
REMARK  111  A    between atoms: _262  and  _263
REMARK  112  A    between atoms: _263  and  _264
REMARK  113  A    between atoms: _264  and  _265
REMARK  114  A    between atoms: _274  and  _276
REMARK  115  A    between atoms: _276  and  _277
REMARK  116  A    between atoms: _276  and  _279
REMARK  117  A    between atoms: _279  and  _280
REMARK  118  A    between atoms: _285  and  _287
REMARK  119  A    between atoms: _287  and  _288
REMARK  120  A    between atoms: _287  and  _290
REMARK  121  A    between atoms: _290  and  _291
REMARK  122  A    between atoms: _291  and  _292
REMARK  123  A    between atoms: _292  and  _293
REMARK  124  A    between atoms: _302  and  _304
REMARK  125  A    between atoms: _304  and  _305
REMARK  126  A    between atoms: _304  and  _307
REMARK  127  A    between atoms: _307  and  _308
REMARK  128  A    between atoms: _311  and  _313
REMARK  129  A    between atoms: _313  and  _314
REMARK  130  A    between atoms: _313  and  _316
REMARK  131  A    between atoms: _316  and  _317
REMARK  132  A    between atoms: _320  and  _322
REMARK  133  A    between atoms: _322  and  _323
REMARK  134  A    between atoms: _322  and  _325
REMARK  135  A    between atoms: _325  and  _326
REMARK  136  A    between atoms: _329  and  _331
REMARK  137  A    between atoms: _331  and  _332
REMARK  138  A    between atoms: _331  and  _334
REMARK  139  A    between atoms: _334  and  _335
REMARK  140  A    between atoms: _338  and  _340
REMARK  141  A    between atoms: _340  and  _341
REMARK  142  A    between atoms: _343  and  _345
REMARK  143  A    between atoms: _345  and  _346
REMARK  144  A    between atoms: _349  and  _351
REMARK  145  A    between atoms: _351  and  _352
REMARK  146  A    between atoms: _351  and  _354
REMARK  147  A    between atoms: _354  and  _355
REMARK  148  A    between atoms: _358  and  _360
REMARK  149  A    between atoms: _360  and  _361
REMARK  150  A    between atoms: _360  and  _363
REMARK  151  A    between atoms: _363  and  _364
REMARK  152  A    between atoms: _367  and  _369
REMARK  153  A    between atoms: _369  and  _370
REMARK  154  A    between atoms: _369  and  _372
REMARK  155  A    between atoms: _372  and  _373
REMARK  156  A    between atoms: _376  and  _378
REMARK  157  A    between atoms: _378  and  _379
REMARK  158  A    between atoms: _378  and  _381
REMARK  159  A    between atoms: _381  and  _382
REMARK  160  A    between atoms: _385  and  _387
REMARK  161  A    between atoms: _387  and  _388
REMARK  162  A    between atoms: _387  and  _390
REMARK  163  A    between atoms: _390  and  _391
REMARK  164  A    between atoms: _394  and  _396
REMARK  165  A    between atoms: _396  and  _397
REMARK  166  A    between atoms: _396  and  _399
REMARK  167  A    between atoms: _399  and  _400
REMARK  168  A    between atoms: _400  and  _401
REMARK  169  A    between atoms: _401  and  _402
REMARK  170  A    between atoms: _402  and  _403
REMARK  171  A    between atoms: _407  and  _409
REMARK  172  A    between atoms: _409  and  _410
REMARK  173  A    between atoms: _409  and  _412
REMARK  174  A    between atoms: _412  and  _413
REMARK  175  A    between atoms: _413  and  _414
REMARK  176  A    between atoms: _416  and  _418
REMARK  177  A    between atoms: _418  and  _419
REMARK  178  A    between atoms: _418  and  _421
REMARK  179  A    between atoms: _424  and  _426
REMARK  180  A    between atoms: _426  and  _427
REMARK  181  A    between atoms: _429  and  _431
REMARK  182  A    between atoms: _431  and  _432
REMARK  183  A    between atoms: _434  and  _436
REMARK  184  A    between atoms: _436  and  _437
REMARK  185  A    between atoms: _436  and  _439
REMARK  186  A    between atoms: _439  and  _440
REMARK  187  A    between atoms: _443  and  _445
REMARK  188  A    between atoms: _445  and  _446
REMARK  189  A    between atoms: _448  and  _450
REMARK  190  A    between atoms: _450  and  _451
REMARK  191  A    between atoms: _453  and  _455
REMARK  192  A    between atoms: _455  and  _456
REMARK  193  A    between atoms: _455  and  _458
REMARK  194  A    between atoms: _458  and  _459
REMARK  195  A    between atoms: _465  and  _467
REMARK  196  A    between atoms: _467  and  _468
REMARK  197  A    between atoms: _467  and  _470
REMARK  198  A    between atoms: _470  and  _471
REMARK  199  A    between atoms: _474  and  _476
REMARK  200  A    between atoms: _476  and  _477
REMARK  201  A    between atoms: _476  and  _479
REMARK  202  A    between atoms: _479  and  _480
REMARK  203  A    between atoms: _483  and  _485
REMARK  204  A    between atoms: _485  and  _486
REMARK  205  A    between atoms: _485  and  _488
REMARK  206  A    between atoms: _488  and  _489
REMARK  207  A    between atoms: _493  and  _494
REMARK  208  A    between atoms: _499  and  _501
REMARK  209  A    between atoms: _501  and  _502
REMARK  210  A    between atoms: _501  and  _504
REMARK  211  A    between atoms: _504  and  _505
REMARK  212  A    between atoms: _508  and  _510
REMARK  213  A    between atoms: _510  and  _511
REMARK  214  A    between atoms: _510  and  _513
REMARK  215  A    between atoms: _513  and  _514
REMARK  216  A    between atoms: _519  and  _521
REMARK  217  A    between atoms: _521  and  _522
REMARK  218  A    between atoms: _521  and  _524
REMARK  219  A    between atoms: _524  and  _525
REMARK  220  A    between atoms: _528  and  _530
REMARK  221  A    between atoms: _530  and  _531
REMARK  222  A    between atoms: _530  and  _533
REMARK  223  A    between atoms: _533  and  _534
REMARK  224  A    between atoms: _537  and  _539
REMARK  225  A    between atoms: _539  and  _540
REMARK  226  A    between atoms: _542  and  _544
REMARK  227  A    between atoms: _544  and  _545
REMARK  228  A    between atoms: _544  and  _547
REMARK  229  A    between atoms: _547  and  _548
REMARK  230  A    between atoms: _548  and  _549
REMARK  231  A    between atoms: _549  and  _550
REMARK  232  A    between atoms: _559  and  _561
REMARK  233  A    between atoms: _561  and  _562
REMARK  234  A    between atoms: _561  and  _564
REMARK  235  A    between atoms: _564  and  _565
REMARK                            x       y       z     vdW  Elec       q    Type
REMARK                         _______ _______ _______ _____ _____    ______ ____
ROOT
ATOM      1  C   GLY A   5      17.285  18.369  14.044  0.00  0.00    +0.243 C 
ATOM      2  N   ILE A   6      18.110  19.426  14.103  0.00  0.00    -0.297 N 
ATOM      3  H   ILE A   6      18.360  19.836  15.025  0.00  0.00    +0.150 HD
ATOM      4  O   GLY A   5      17.045  17.758  13.029  0.00  0.00    -0.273 OA
ENDROOT
BRANCH   1   5
ATOM      5  CA  GLY A   5      16.702  17.979  15.381  0.00  0.00    +0.176 C 
BRANCH   5   8
ATOM      6  C   GLY A   4      14.865  16.428  15.754  0.00  0.00    +0.243 C 
ATOM      7  O   GLY A   4      14.185  17.263  16.347  0.00  0.00    -0.273 OA
ATOM      8  N   GLY A   5      16.098  16.678  15.313  0.00  0.00    -0.295 N 
ATOM      9  H   GLY A   5      16.647  15.896  14.902  0.00  0.00    +0.150 HD
BRANCH   6  10
ATOM     10  CA  GLY A   4      14.367  15.022  15.473  0.00  0.00    +0.176 C 
BRANCH  10  13
ATOM     11  C   VAL A   3      14.476  13.533  17.439  0.00  0.00    +0.241 C 
ATOM     12  O   VAL A   3      15.625  13.157  17.231  0.00  0.00    -0.273 OA
ATOM     13  N   GLY A   4      13.827  14.400  16.676  0.00  0.00    -0.295 N 
ATOM     14  H   GLY A   4      12.859  14.656  16.956  0.00  0.00    +0.150 HD
BRANCH  11  15
ATOM     15  CA  VAL A   3      13.809  12.958  18.661  0.00  0.00    +0.149 C 
BRANCH  15  17
ATOM     16  C   MET A   2      12.876  10.715  18.543  0.00  0.00    +0.241 C 
ATOM     17  N   VAL A   3      13.939  11.499  18.655  0.00  0.00    -0.297 N 
ATOM     18  H   VAL A   3      14.883  11.070  18.740  0.00  0.00    +0.150 HD
ATOM     19  O   MET A   2      11.706  11.054  18.412  0.00  0.00    -0.273 OA
BRANCH  16  20
ATOM     20  CA  MET A   2      13.174   9.207  18.579  0.00  0.00    +0.149 C 
BRANCH  20  23
ATOM     21  C   LYS A   1      12.855   8.282  20.826  0.00  0.00    +0.238 C 
ATOM     22  O   LYS A   1      14.022   8.335  21.191  0.00  0.00    -0.274 OA
ATOM     23  N   MET A   2      12.396   8.575  19.617  0.00  0.00    -0.297 N 
ATOM     24  H   MET A   2      11.408   8.333  19.402  0.00  0.00    +0.150 HD
BRANCH  21  25
ATOM     25  CA  LYS A   1      11.777   7.880  21.819  0.00  0.00    +0.145 C 
BRANCH  25  26
ATOM     26  N   LYS A   1      12.299   6.771  22.588  0.00  0.00    -0.238 NA
ATOM     27  H   LYS A   1      13.325   6.700  22.740  0.00  0.00    +0.142 HD
ENDBRANCH  25  26
BRANCH  25  28
ATOM     28  CB  LYS A   1      11.401   9.021  22.755  0.00  0.00    +0.026 C 
BRANCH  28  29
ATOM     29  CG  LYS A   1      11.049  10.400  22.249  0.00  0.00    -0.000 C 
BRANCH  29  30
ATOM     30  CD  LYS A   1       9.775  10.388  21.436  0.00  0.00    -0.024 C 
BRANCH  30  31
ATOM     31  CE  LYS A   1       9.582  11.709  20.683  0.00  0.00    -0.086 C 
BRANCH  31  32
ATOM     32  NZ  LYS A   1       8.165  12.145  20.899  0.00  0.00    +0.380 N 
ATOM     33  HZ1 LYS A   1       7.996  12.277  21.917  0.00  0.00    -0.089 HD
ATOM     34  HZ2 LYS A   1       7.520  11.417  20.530  0.00  0.00    -0.089 HD
ATOM     35  HZ3 LYS A   1       8.000  13.042  20.399  0.00  0.00    -0.089 HD
ENDBRANCH  31  32
ENDBRANCH  30  31
ENDBRANCH  29  30
ENDBRANCH  28  29
ENDBRANCH  25  28
ENDBRANCH  21  25
ENDBRANCH  20  23
BRANCH  20  36
ATOM     36  CB  MET A   2      12.842   8.679  17.183  0.00  0.00    +0.041 C 
BRANCH  36  37
ATOM     37  CG  MET A   2      12.987   7.176  17.026  0.00  0.00    +0.060 C 
BRANCH  37  38
ATOM     38  SD  MET A   2      14.700   6.728  17.238  0.00  0.00    -0.139 S 
ATOM     39  CE  MET A   2      15.569   7.682  15.988  0.00  0.00    +0.069 C 
ENDBRANCH  37  38
ENDBRANCH  36  37
ENDBRANCH  20  36
ENDBRANCH  16  20
ENDBRANCH  15  17
BRANCH  15  40
ATOM     40  CB  VAL A   3      14.453  13.553  19.930  0.00  0.00    +0.027 C 
ATOM     41  CG2 VAL A   3      13.659  13.113  21.140  0.00  0.00    +0.002 C 
ATOM     42  CG1 VAL A   3      14.444  15.038  19.873  0.00  0.00    +0.002 C 
ENDBRANCH  15  40
ENDBRANCH  11  15
ENDBRANCH  10  13
ENDBRANCH   6  10
ENDBRANCH   5   8
ENDBRANCH   1   5
BRANCH   2  43
ATOM     43  CA  ILE A   6      18.658  20.002  12.881  0.00  0.00    +0.149 C 
BRANCH  43  44
ATOM     44  C   ILE A   6      19.488  18.982  12.143  0.00  0.00    +0.241 C 
ATOM     45  N   GLY A   7      20.147  18.061  12.803  0.00  0.00    -0.295 N 
ATOM     46  H   GLY A   7      20.031  18.009  13.835  0.00  0.00    +0.150 HD
ATOM     47  O   ILE A   6      19.577  18.995  10.932  0.00  0.00    -0.273 OA
BRANCH  45  48
ATOM     48  CA  GLY A   7      21.021  17.122  12.162  0.00  0.00    +0.176 C 
BRANCH  48  49
ATOM     49  C   GLY A   7      20.416  15.766  11.905  0.00  0.00    +0.243 C 
ATOM     50  N   GLY A   8      19.152  15.588  12.275  0.00  0.00    -0.295 N 
ATOM     51  H   GLY A   8      18.605  16.369  12.691  0.00  0.00    +0.150 HD
ATOM     52  O   GLY A   7      21.047  14.868  11.368  0.00  0.00    -0.273 OA
BRANCH  50  53
ATOM     53  CA  GLY A   8      18.547  14.270  12.084  0.00  0.00    +0.176 C 
BRANCH  53  54
ATOM     54  C   GLY A   8      17.901  13.777  13.398  0.00  0.00    +0.243 C 
ATOM     55  O   GLY A   8      17.809  14.560  14.360  0.00  0.00    -0.273 OA
ATOM     56  N   PHE A   9      17.474  12.525  13.366  0.00  0.00    -0.297 N 
ATOM     57  H   PHE A   9      17.611  11.964  12.501  0.00  0.00    +0.150 HD
BRANCH  56  58
ATOM     58  CA  PHE A   9      16.814  11.912  14.518  0.00  0.00    +0.153 C 
BRANCH  58  59
ATOM     59  C   PHE A   9      17.753  11.092  15.388  0.00  0.00    +0.241 C 
ATOM     60  N   ILE A  10      17.581  11.094  16.710  0.00  0.00    -0.298 N 
ATOM     61  H   ILE A  10      16.804  11.667  17.097  0.00  0.00    +0.150 HD
ATOM     62  O   PHE A   9      18.625  10.416  14.876  0.00  0.00    -0.273 OA
BRANCH  60  63
ATOM     63  CA  ILE A  10      18.406  10.349  17.646  0.00  0.00    +0.137 C 
BRANCH  63  64
ATOM     64  C   ILE A  10      17.520   9.647  18.659  0.00  0.00    +0.227 C 
ATOM     65  O   ILE A  10      16.394  10.060  18.912  0.00  0.00    -0.286 OA
ENDBRANCH  63  64
BRANCH  63  66
ATOM     66  CB  ILE A  10      19.393  11.233  18.448  0.00  0.00    +0.026 C 
ATOM     67  CG2 ILE A  10      20.426  11.912  17.554  0.00  0.00    +0.002 C 
BRANCH  66  68
ATOM     68  CG1 ILE A  10      18.642  12.226  19.328  0.00  0.00    +0.002 C 
ATOM     69  CD1 ILE A  10      19.445  13.009  20.344  0.00  0.00    +0.000 C 
ENDBRANCH  66  68
ENDBRANCH  63  66
ENDBRANCH  60  63
ENDBRANCH  58  59
BRANCH  58  70
ATOM     70  CB  PHE A   9      15.663  10.971  14.095  0.00  0.00    +0.055 C 
BRANCH  70  71
ATOM     71  CG  PHE A   9      14.406  11.732  13.694  0.00  0.00    -0.020 A 
ATOM     72  CD2 PHE A   9      13.359  11.892  14.584  0.00  0.00    -0.004 A 
ATOM     73  CE2 PHE A   9      12.223  12.574  14.175  0.00  0.00    -0.000 A 
ATOM     74  CZ  PHE A   9      12.128  13.122  12.894  0.00  0.00    -0.000 A 
ATOM     75  CE1 PHE A   9      13.180  12.983  12.006  0.00  0.00    -0.000 A 
ATOM     76  CD1 PHE A   9      14.308  12.279  12.425  0.00  0.00    -0.004 A 
ENDBRANCH  70  71
ENDBRANCH  58  70
ENDBRANCH  56  58
ENDBRANCH  53  54
ENDBRANCH  50  53
ENDBRANCH  48  49
ENDBRANCH  45  48
ENDBRANCH  43  44
BRANCH  43  77
ATOM     77  CB  ILE A   6      19.489  21.273  13.215  0.00  0.00    +0.027 C 
ATOM     78  CG2 ILE A   6      20.733  20.939  14.013  0.00  0.00    +0.002 C 
BRANCH  77  79
ATOM     79  CG1 ILE A   6      19.897  22.092  12.018  0.00  0.00    +0.002 C 
ATOM     80  CD1 ILE A   6      18.766  22.944  11.533  0.00  0.00    +0.000 C 
ENDBRANCH  77  79
ENDBRANCH  43  77
ENDBRANCH   2  43
TORSDOF 35
REMARK  Name = ../refined-set-2016/3s43/3s43_pocket.pdb
REMARK  235 active torsions:
REMARK  status: ('A' for Active; 'I' for Inactive)
REMARK    1  A    between atoms: _1  and  _3
REMARK    2  A    between atoms: _3  and  _4
REMARK    3  A    between atoms: _3  and  _6
REMARK    4  A    between atoms: _6  and  _7
REMARK    5  A    between atoms: _7  and  _8
REMARK    6  A    between atoms: _8  and  _9
REMARK    7  A    between atoms: _18  and  _20
REMARK    8  A    between atoms: _20  and  _21
REMARK    9  A    between atoms: _20  and  _23
REMARK   10  A    between atoms: _23  and  _24
REMARK   11  A    between atoms: _27  and  _29
REMARK   12  A    between atoms: _29  and  _30
REMARK   13  A    between atoms: _29  and  _32
REMARK   14  A    between atoms: _32  and  _33
REMARK   15  A    between atoms: _36  and  _38
REMARK   16  A    between atoms: _38  and  _39
REMARK   17  A    between atoms: _38  and  _41
REMARK   18  A    between atoms: _41  and  _42
REMARK   19  A    between atoms: _45  and  _47
REMARK   20  A    between atoms: _47  and  _48
REMARK   21  A    between atoms: _47  and  _50
REMARK   22  A    between atoms: _50  and  _51
REMARK   23  A    between atoms: _54  and  _56
REMARK   24  A    between atoms: _56  and  _57
REMARK   25  A    between atoms: _59  and  _61
REMARK   26  A    between atoms: _61  and  _62
REMARK   27  A    between atoms: _65  and  _67
REMARK   28  A    between atoms: _67  and  _68
REMARK   29  A    between atoms: _67  and  _70
REMARK   30  A    between atoms: _70  and  _71
REMARK   31  A    between atoms: _74  and  _76
REMARK   32  A    between atoms: _76  and  _77
REMARK   33  A    between atoms: _76  and  _79
REMARK   34  A    between atoms: _79  and  _80
REMARK   35  A    between atoms: _83  and  _85
REMARK   36  A    between atoms: _85  and  _86
REMARK   37  A    between atoms: _85  and  _88
REMARK   38  A    between atoms: _88  and  _89
REMARK   39  A    between atoms: _92  and  _94
REMARK   40  A    between atoms: _94  and  _95
REMARK   41  A    between atoms: _94  and  _97
REMARK   42  A    between atoms: _97  and  _98
REMARK   43  A    between atoms: _101  and  _103
REMARK   44  A    between atoms: _103  and  _104
REMARK   45  A    between atoms: _103  and  _106
REMARK   46  A    between atoms: _106  and  _107
REMARK   47  A    between atoms: _107  and  _108
REMARK   48  A    between atoms: _108  and  _109
REMARK   49  A    between atoms: _109  and  _110
REMARK   50  A    between atoms: _114  and  _116
REMARK   51  A    between atoms: _116  and  _117
REMARK   52  A    between atoms: _116  and  _119
REMARK   53  A    between atoms: _119  and  _120
REMARK   54  A    between atoms: _120  and  _121
REMARK   55  A    between atoms: _123  and  _125
REMARK   56  A    between atoms: _125  and  _126
REMARK   57  A    between atoms: _125  and  _128
REMARK   58  A    between atoms: _131  and  _133
REMARK   59  A    between atoms: _133  and  _134
REMARK   60  A    between atoms: _136  and  _138
REMARK   61  A    between atoms: _138  and  _139
REMARK   62  A    between atoms: _141  and  _143
REMARK   63  A    between atoms: _143  and  _144
REMARK   64  A    between atoms: _143  and  _146
REMARK   65  A    between atoms: _146  and  _147
REMARK   66  A    between atoms: _150  and  _152
REMARK   67  A    between atoms: _152  and  _153
REMARK   68  A    between atoms: _155  and  _157
REMARK   69  A    between atoms: _157  and  _158
REMARK   70  A    between atoms: _160  and  _162
REMARK   71  A    between atoms: _162  and  _163
REMARK   72  A    between atoms: _162  and  _165
REMARK   73  A    between atoms: _165  and  _166
REMARK   74  A    between atoms: _172  and  _174
REMARK   75  A    between atoms: _174  and  _175
REMARK   76  A    between atoms: _174  and  _177
REMARK   77  A    between atoms: _177  and  _178
REMARK   78  A    between atoms: _181  and  _183
REMARK   79  A    between atoms: _183  and  _184
REMARK   80  A    between atoms: _183  and  _186
REMARK   81  A    between atoms: _189  and  _191
REMARK   82  A    between atoms: _191  and  _192
REMARK   83  A    between atoms: _191  and  _194
REMARK   84  A    between atoms: _194  and  _195
REMARK   85  A    between atoms: _198  and  _200
REMARK   86  A    between atoms: _200  and  _201
REMARK   87  A    between atoms: _200  and  _203
REMARK   88  A    between atoms: _203  and  _204
REMARK   89  A    between atoms: _208  and  _209
REMARK   90  A    between atoms: _214  and  _216
REMARK   91  A    between atoms: _216  and  _217
REMARK   92  A    between atoms: _216  and  _219
REMARK   93  A    between atoms: _219  and  _220
REMARK   94  A    between atoms: _223  and  _225
REMARK   95  A    between atoms: _225  and  _226
REMARK   96  A    between atoms: _225  and  _228
REMARK   97  A    between atoms: _228  and  _229
REMARK   98  A    between atoms: _234  and  _236
REMARK   99  A    between atoms: _236  and  _237
REMARK  100  A    between atoms: _236  and  _239
REMARK  101  A    between atoms: _239  and  _240
REMARK  102  A    between atoms: _243  and  _245
REMARK  103  A    between atoms: _245  and  _246
REMARK  104  A    between atoms: _245  and  _248
REMARK  105  A    between atoms: _248  and  _249
REMARK  106  A    between atoms: _252  and  _254
REMARK  107  A    between atoms: _254  and  _255
REMARK  108  A    between atoms: _257  and  _259
REMARK  109  A    between atoms: _259  and  _260
REMARK  110  A    between atoms: _259  and  _262
REMARK  111  A    between atoms: _262  and  _263
REMARK  112  A    between atoms: _263  and  _264
REMARK  113  A    between atoms: _264  and  _265
REMARK  114  A    between atoms: _274  and  _276
REMARK  115  A    between atoms: _276  and  _277
REMARK  116  A    between atoms: _276  and  _279
REMARK  117  A    between atoms: _279  and  _280
REMARK  118  A    between atoms: _285  and  _287
REMARK  119  A    between atoms: _287  and  _288
REMARK  120  A    between atoms: _287  and  _290
REMARK  121  A    between atoms: _290  and  _291
REMARK  122  A    between atoms: _291  and  _292
REMARK  123  A    between atoms: _292  and  _293
REMARK  124  A    between atoms: _302  and  _304
REMARK  125  A    between atoms: _304  and  _305
REMARK  126  A    between atoms: _304  and  _307
REMARK  127  A    between atoms: _307  and  _308
REMARK  128  A    between atoms: _311  and  _313
REMARK  129  A    between atoms: _313  and  _314
REMARK  130  A    between atoms: _313  and  _316
REMARK  131  A    between atoms: _316  and  _317
REMARK  132  A    between atoms: _320  and  _322
REMARK  133  A    between atoms: _322  and  _323
REMARK  134  A    between atoms: _322  and  _325
REMARK  135  A    between atoms: _325  and  _326
REMARK  136  A    between atoms: _329  and  _331
REMARK  137  A    between atoms: _331  and  _332
REMARK  138  A    between atoms: _331  and  _334
REMARK  139  A    between atoms: _334  and  _335
REMARK  140  A    between atoms: _338  and  _340
REMARK  141  A    between atoms: _340  and  _341
REMARK  142  A    between atoms: _343  and  _345
REMARK  143  A    between atoms: _345  and  _346
REMARK  144  A    between atoms: _349  and  _351
REMARK  145  A    between atoms: _351  and  _352
REMARK  146  A    between atoms: _351  and  _354
REMARK  147  A    between atoms: _354  and  _355
REMARK  148  A    between atoms: _358  and  _360
REMARK  149  A    between atoms: _360  and  _361
REMARK  150  A    between atoms: _360  and  _363
REMARK  151  A    between atoms: _363  and  _364
REMARK  152  A    between atoms: _367  and  _369
REMARK  153  A    between atoms: _369  and  _370
REMARK  154  A    between atoms: _369  and  _372
REMARK  155  A    between atoms: _372  and  _373
REMARK  156  A    between atoms: _376  and  _378
REMARK  157  A    between atoms: _378  and  _379
REMARK  158  A    between atoms: _378  and  _381
REMARK  159  A    between atoms: _381  and  _382
REMARK  160  A    between atoms: _385  and  _387
REMARK  161  A    between atoms: _387  and  _388
REMARK  162  A    between atoms: _387  and  _390
REMARK  163  A    between atoms: _390  and  _391
REMARK  164  A    between atoms: _394  and  _396
REMARK  165  A    between atoms: _396  and  _397
REMARK  166  A    between atoms: _396  and  _399
REMARK  167  A    between atoms: _399  and  _400
REMARK  168  A    between atoms: _400  and  _401
REMARK  169  A    between atoms: _401  and  _402
REMARK  170  A    between atoms: _402  and  _403
REMARK  171  A    between atoms: _407  and  _409
REMARK  172  A    between atoms: _409  and  _410
REMARK  173  A    between atoms: _409  and  _412
REMARK  174  A    between atoms: _412  and  _413
REMARK  175  A    between atoms: _413  and  _414
REMARK  176  A    between atoms: _416  and  _418
REMARK  177  A    between atoms: _418  and  _419
REMARK  178  A    between atoms: _418  and  _421
REMARK  179  A    between atoms: _424  and  _426
REMARK  180  A    between atoms: _426  and  _427
REMARK  181  A    between atoms: _429  and  _431
REMARK  182  A    between atoms: _431  and  _432
REMARK  183  A    between atoms: _434  and  _436
REMARK  184  A    between atoms: _436  and  _437
REMARK  185  A    between atoms: _436  and  _439
REMARK  186  A    between atoms: _439  and  _440
REMARK  187  A    between atoms: _443  and  _445
REMARK  188  A    between atoms: _445  and  _446
REMARK  189  A    between atoms: _448  and  _450
REMARK  190  A    between atoms: _450  and  _451
REMARK  191  A    between atoms: _453  and  _455
REMARK  192  A    between atoms: _455  and  _456
REMARK  193  A    between atoms: _455  and  _458
REMARK  194  A    between atoms: _458  and  _459
REMARK  195  A    between atoms: _465  and  _467
REMARK  196  A    between atoms: _467  and  _468
REMARK  197  A    between atoms: _467  and  _470
REMARK  198  A    between atoms: _470  and  _471
REMARK  199  A    between atoms: _474  and  _476
REMARK  200  A    between atoms: _476  and  _477
REMARK  201  A    between atoms: _476  and  _479
REMARK  202  A    between atoms: _479  and  _480
REMARK  203  A    between atoms: _483  and  _485
REMARK  204  A    between atoms: _485  and  _486
REMARK  205  A    between atoms: _485  and  _488
REMARK  206  A    between atoms: _488  and  _489
REMARK  207  A    between atoms: _493  and  _494
REMARK  208  A    between atoms: _499  and  _501
REMARK  209  A    between atoms: _501  and  _502
REMARK  210  A    between atoms: _501  and  _504
REMARK  211  A    between atoms: _504  and  _505
REMARK  212  A    between atoms: _508  and  _510
REMARK  213  A    between atoms: _510  and  _511
REMARK  214  A    between atoms: _510  and  _513
REMARK  215  A    between atoms: _513  and  _514
REMARK  216  A    between atoms: _519  and  _521
REMARK  217  A    between atoms: _521  and  _522
REMARK  218  A    between atoms: _521  and  _524
REMARK  219  A    between atoms: _524  and  _525
REMARK  220  A    between atoms: _528  and  _530
REMARK  221  A    between atoms: _530  and  _531
REMARK  222  A    between atoms: _530  and  _533
REMARK  223  A    between atoms: _533  and  _534
REMARK  224  A    between atoms: _537  and  _539
REMARK  225  A    between atoms: _539  and  _540
REMARK  226  A    between atoms: _542  and  _544
REMARK  227  A    between atoms: _544  and  _545
REMARK  228  A    between atoms: _544  and  _547
REMARK  229  A    between atoms: _547  and  _548
REMARK  230  A    between atoms: _548  and  _549
REMARK  231  A    between atoms: _549  and  _550
REMARK  232  A    between atoms: _559  and  _561
REMARK  233  A    between atoms: _561  and  _562
REMARK  234  A    between atoms: _561  and  _564
REMARK  235  A    between atoms: _564  and  _565
REMARK                            x       y       z     vdW  Elec       q    Type
REMARK                         _______ _______ _______ _____ _____    ______ ____
ROOT
ATOM      1  CA  LEU A   1      13.639  13.138  27.715  0.00  0.00    +0.133 C 
ENDROOT
BRANCH   1   2
ATOM      2  N   LEU A   1      12.726  14.031  28.451  0.00  0.00    -0.239 NA
ATOM      3  H   LEU A   1      12.618  15.017  28.138  0.00  0.00    +0.142 HD
ENDBRANCH   1   2
BRANCH   1   4
ATOM      4  C   LEU A   1      15.041  13.334  28.225  0.00  0.00    +0.224 C 
ATOM      5  O   LEU A   1      15.407  14.449  28.625  0.00  0.00    -0.287 OA
ENDBRANCH   1   4
BRANCH   1   6
ATOM      6  CB  LEU A   1      13.573  13.458  26.218  0.00  0.00    +0.025 C 
BRANCH   6   7
ATOM      7  CG  LEU A   1      12.182  13.524  25.594  0.00  0.00    +0.002 C 
ATOM      8  CD2 LEU A   1      11.423  12.237  25.775  0.00  0.00    +0.000 C 
ATOM      9  CD1 LEU A   1      12.304  13.883  24.129  0.00  0.00    +0.000 C 
ENDBRANCH   6   7
ENDBRANCH   1   6
TORSDOF 4
REMARK  Name = ../refined-set-2016/3s43/3s43_pocket.pdb
REMARK  235 active torsions:
REMARK  status: ('A' for Active; 'I' for Inactive)
REMARK    1  A    between atoms: _1  and  _3
REMARK    2  A    between atoms: _3  and  _4
REMARK    3  A    between atoms: _3  and  _6
REMARK    4  A    between atoms: _6  and  _7
REMARK    5  A    between atoms: _7  and  _8
REMARK    6  A    between atoms: _8  and  _9
REMARK    7  A    between atoms: _18  and  _20
REMARK    8  A    between atoms: _20  and  _21
REMARK    9  A    between atoms: _20  and  _23
REMARK   10  A    between atoms: _23  and  _24
REMARK   11  A    between atoms: _27  and  _29
REMARK   12  A    between atoms: _29  and  _30
REMARK   13  A    between atoms: _29  and  _32
REMARK   14  A    between atoms: _32  and  _33
REMARK   15  A    between atoms: _36  and  _38
REMARK   16  A    between atoms: _38  and  _39
REMARK   17  A    between atoms: _38  and  _41
REMARK   18  A    between atoms: _41  and  _42
REMARK   19  A    between atoms: _45  and  _47
REMARK   20  A    between atoms: _47  and  _48
REMARK   21  A    between atoms: _47  and  _50
REMARK   22  A    between atoms: _50  and  _51
REMARK   23  A    between atoms: _54  and  _56
REMARK   24  A    between atoms: _56  and  _57
REMARK   25  A    between atoms: _59  and  _61
REMARK   26  A    between atoms: _61  and  _62
REMARK   27  A    between atoms: _65  and  _67
REMARK   28  A    between atoms: _67  and  _68
REMARK   29  A    between atoms: _67  and  _70
REMARK   30  A    between atoms: _70  and  _71
REMARK   31  A    between atoms: _74  and  _76
REMARK   32  A    between atoms: _76  and  _77
REMARK   33  A    between atoms: _76  and  _79
REMARK   34  A    between atoms: _79  and  _80
REMARK   35  A    between atoms: _83  and  _85
REMARK   36  A    between atoms: _85  and  _86
REMARK   37  A    between atoms: _85  and  _88
REMARK   38  A    between atoms: _88  and  _89
REMARK   39  A    between atoms: _92  and  _94
REMARK   40  A    between atoms: _94  and  _95
REMARK   41  A    between atoms: _94  and  _97
REMARK   42  A    between atoms: _97  and  _98
REMARK   43  A    between atoms: _101  and  _103
REMARK   44  A    between atoms: _103  and  _104
REMARK   45  A    between atoms: _103  and  _106
REMARK   46  A    between atoms: _106  and  _107
REMARK   47  A    between atoms: _107  and  _108
REMARK   48  A    between atoms: _108  and  _109
REMARK   49  A    between atoms: _109  and  _110
REMARK   50  A    between atoms: _114  and  _116
REMARK   51  A    between atoms: _116  and  _117
REMARK   52  A    between atoms: _116  and  _119
REMARK   53  A    between atoms: _119  and  _120
REMARK   54  A    between atoms: _120  and  _121
REMARK   55  A    between atoms: _123  and  _125
REMARK   56  A    between atoms: _125  and  _126
REMARK   57  A    between atoms: _125  and  _128
REMARK   58  A    between atoms: _131  and  _133
REMARK   59  A    between atoms: _133  and  _134
REMARK   60  A    between atoms: _136  and  _138
REMARK   61  A    between atoms: _138  and  _139
REMARK   62  A    between atoms: _141  and  _143
REMARK   63  A    between atoms: _143  and  _144
REMARK   64  A    between atoms: _143  and  _146
REMARK   65  A    between atoms: _146  and  _147
REMARK   66  A    between atoms: _150  and  _152
REMARK   67  A    between atoms: _152  and  _153
REMARK   68  A    between atoms: _155  and  _157
REMARK   69  A    between atoms: _157  and  _158
REMARK   70  A    between atoms: _160  and  _162
REMARK   71  A    between atoms: _162  and  _163
REMARK   72  A    between atoms: _162  and  _165
REMARK   73  A    between atoms: _165  and  _166
REMARK   74  A    between atoms: _172  and  _174
REMARK   75  A    between atoms: _174  and  _175
REMARK   76  A    between atoms: _174  and  _177
REMARK   77  A    between atoms: _177  and  _178
REMARK   78  A    between atoms: _181  and  _183
REMARK   79  A    between atoms: _183  and  _184
REMARK   80  A    between atoms: _183  and  _186
REMARK   81  A    between atoms: _189  and  _191
REMARK   82  A    between atoms: _191  and  _192
REMARK   83  A    between atoms: _191  and  _194
REMARK   84  A    between atoms: _194  and  _195
REMARK   85  A    between atoms: _198  and  _200
REMARK   86  A    between atoms: _200  and  _201
REMARK   87  A    between atoms: _200  and  _203
REMARK   88  A    between atoms: _203  and  _204
REMARK   89  A    between atoms: _208  and  _209
REMARK   90  A    between atoms: _214  and  _216
REMARK   91  A    between atoms: _216  and  _217
REMARK   92  A    between atoms: _216  and  _219
REMARK   93  A    between atoms: _219  and  _220
REMARK   94  A    between atoms: _223  and  _225
REMARK   95  A    between atoms: _225  and  _226
REMARK   96  A    between atoms: _225  and  _228
REMARK   97  A    between atoms: _228  and  _229
REMARK   98  A    between atoms: _234  and  _236
REMARK   99  A    between atoms: _236  and  _237
REMARK  100  A    between atoms: _236  and  _239
REMARK  101  A    between atoms: _239  and  _240
REMARK  102  A    between atoms: _243  and  _245
REMARK  103  A    between atoms: _245  and  _246
REMARK  104  A    between atoms: _245  and  _248
REMARK  105  A    between atoms: _248  and  _249
REMARK  106  A    between atoms: _252  and  _254
REMARK  107  A    between atoms: _254  and  _255
REMARK  108  A    between atoms: _257  and  _259
REMARK  109  A    between atoms: _259  and  _260
REMARK  110  A    between atoms: _259  and  _262
REMARK  111  A    between atoms: _262  and  _263
REMARK  112  A    between atoms: _263  and  _264
REMARK  113  A    between atoms: _264  and  _265
REMARK  114  A    between atoms: _274  and  _276
REMARK  115  A    between atoms: _276  and  _277
REMARK  116  A    between atoms: _276  and  _279
REMARK  117  A    between atoms: _279  and  _280
REMARK  118  A    between atoms: _285  and  _287
REMARK  119  A    between atoms: _287  and  _288
REMARK  120  A    between atoms: _287  and  _290
REMARK  121  A    between atoms: _290  and  _291
REMARK  122  A    between atoms: _291  and  _292
REMARK  123  A    between atoms: _292  and  _293
REMARK  124  A    between atoms: _302  and  _304
REMARK  125  A    between atoms: _304  and  _305
REMARK  126  A    between atoms: _304  and  _307
REMARK  127  A    between atoms: _307  and  _308
REMARK  128  A    between atoms: _311  and  _313
REMARK  129  A    between atoms: _313  and  _314
REMARK  130  A    between atoms: _313  and  _316
REMARK  131  A    between atoms: _316  and  _317
REMARK  132  A    between atoms: _320  and  _322
REMARK  133  A    between atoms: _322  and  _323
REMARK  134  A    between atoms: _322  and  _325
REMARK  135  A    between atoms: _325  and  _326
REMARK  136  A    between atoms: _329  and  _331
REMARK  137  A    between atoms: _331  and  _332
REMARK  138  A    between atoms: _331  and  _334
REMARK  139  A    between atoms: _334  and  _335
REMARK  140  A    between atoms: _338  and  _340
REMARK  141  A    between atoms: _340  and  _341
REMARK  142  A    between atoms: _343  and  _345
REMARK  143  A    between atoms: _345  and  _346
REMARK  144  A    between atoms: _349  and  _351
REMARK  145  A    between atoms: _351  and  _352
REMARK  146  A    between atoms: _351  and  _354
REMARK  147  A    between atoms: _354  and  _355
REMARK  148  A    between atoms: _358  and  _360
REMARK  149  A    between atoms: _360  and  _361
REMARK  150  A    between atoms: _360  and  _363
REMARK  151  A    between atoms: _363  and  _364
REMARK  152  A    between atoms: _367  and  _369
REMARK  153  A    between atoms: _369  and  _370
REMARK  154  A    between atoms: _369  and  _372
REMARK  155  A    between atoms: _372  and  _373
REMARK  156  A    between atoms: _376  and  _378
REMARK  157  A    between atoms: _378  and  _379
REMARK  158  A    between atoms: _378  and  _381
REMARK  159  A    between atoms: _381  and  _382
REMARK  160  A    between atoms: _385  and  _387
REMARK  161  A    between atoms: _387  and  _388
REMARK  162  A    between atoms: _387  and  _390
REMARK  163  A    between atoms: _390  and  _391
REMARK  164  A    between atoms: _394  and  _396
REMARK  165  A    between atoms: _396  and  _397
REMARK  166  A    between atoms: _396  and  _399
REMARK  167  A    between atoms: _399  and  _400
REMARK  168  A    between atoms: _400  and  _401
REMARK  169  A    between atoms: _401  and  _402
REMARK  170  A    between atoms: _402  and  _403
REMARK  171  A    between atoms: _407  and  _409
REMARK  172  A    between atoms: _409  and  _410
REMARK  173  A    between atoms: _409  and  _412
REMARK  174  A    between atoms: _412  and  _413
REMARK  175  A    between atoms: _413  and  _414
REMARK  176  A    between atoms: _416  and  _418
REMARK  177  A    between atoms: _418  and  _419
REMARK  178  A    between atoms: _418  and  _421
REMARK  179  A    between atoms: _424  and  _426
REMARK  180  A    between atoms: _426  and  _427
REMARK  181  A    between atoms: _429  and  _431
REMARK  182  A    between atoms: _431  and  _432
REMARK  183  A    between atoms: _434  and  _436
REMARK  184  A    between atoms: _436  and  _437
REMARK  185  A    between atoms: _436  and  _439
REMARK  186  A    between atoms: _439  and  _440
REMARK  187  A    between atoms: _443  and  _445
REMARK  188  A    between atoms: _445  and  _446
REMARK  189  A    between atoms: _448  and  _450
REMARK  190  A    between atoms: _450  and  _451
REMARK  191  A    between atoms: _453  and  _455
REMARK  192  A    between atoms: _455  and  _456
REMARK  193  A    between atoms: _455  and  _458
REMARK  194  A    between atoms: _458  and  _459
REMARK  195  A    between atoms: _465  and  _467
REMARK  196  A    between atoms: _467  and  _468
REMARK  197  A    between atoms: _467  and  _470
REMARK  198  A    between atoms: _470  and  _471
REMARK  199  A    between atoms: _474  and  _476
REMARK  200  A    between atoms: _476  and  _477
REMARK  201  A    between atoms: _476  and  _479
REMARK  202  A    between atoms: _479  and  _480
REMARK  203  A    between atoms: _483  and  _485
REMARK  204  A    between atoms: _485  and  _486
REMARK  205  A    between atoms: _485  and  _488
REMARK  206  A    between atoms: _488  and  _489
REMARK  207  A    between atoms: _493  and  _494
REMARK  208  A    between atoms: _499  and  _501
REMARK  209  A    between atoms: _501  and  _502
REMARK  210  A    between atoms: _501  and  _504
REMARK  211  A    between atoms: _504  and  _505
REMARK  212  A    between atoms: _508  and  _510
REMARK  213  A    between atoms: _510  and  _511
REMARK  214  A    between atoms: _510  and  _513
REMARK  215  A    between atoms: _513  and  _514
REMARK  216  A    between atoms: _519  and  _521
REMARK  217  A    between atoms: _521  and  _522
REMARK  218  A    between atoms: _521  and  _524
REMARK  219  A    between atoms: _524  and  _525
REMARK  220  A    between atoms: _528  and  _530
REMARK  221  A    between atoms: _530  and  _531
REMARK  222  A    between atoms: _530  and  _533
REMARK  223  A    between atoms: _533  and  _534
REMARK  224  A    between atoms: _537  and  _539
REMARK  225  A    between atoms: _539  and  _540
REMARK  226  A    between atoms: _542  and  _544
REMARK  227  A    between atoms: _544  and  _545
REMARK  228  A    between atoms: _544  and  _547
REMARK  229  A    between atoms: _547  and  _548
REMARK  230  A    between atoms: _548  and  _549
REMARK  231  A    between atoms: _549  and  _550
REMARK  232  A    between atoms: _559  and  _561
REMARK  233  A    between atoms: _561  and  _562
REMARK  234  A    between atoms: _561  and  _564
REMARK  235  A    between atoms: _564  and  _565
REMARK                            x       y       z     vdW  Elec       q    Type
REMARK                         _______ _______ _______ _____ _____    ______ ____
ROOT
ATOM      1  C   ILE A   5      14.543  22.176  27.274  0.00  0.00    +0.241 C 
ATOM      2  N   ILE A   6      13.848  23.289  27.578  0.00  0.00    -0.297 N 
ATOM      3  H   ILE A   6      14.324  24.213  27.538  0.00  0.00    +0.150 HD
ATOM      4  O   ILE A   5      14.145  21.038  27.514  0.00  0.00    -0.273 OA
ENDROOT
BRANCH   1   5
ATOM      5  CA  ILE A   5      15.912  22.394  26.657  0.00  0.00    +0.149 C 
BRANCH   5   8
ATOM      6  C   ASN A   4      18.029  22.328  27.881  0.00  0.00    +0.241 C 
ATOM      7  O   ASN A   4      18.197  23.542  27.840  0.00  0.00    -0.273 OA
ATOM      8  N   ILE A   5      16.943  21.707  27.400  0.00  0.00    -0.297 N 
ATOM      9  H   ILE A   5      16.838  20.686  27.569  0.00  0.00    +0.150 HD
BRANCH   6  10
ATOM     10  CA  ASN A   4      19.065  21.457  28.554  0.00  0.00    +0.158 C 
BRANCH  10  12
ATOM     11  C   ILE A   3      20.703  21.612  26.812  0.00  0.00    +0.241 C 
ATOM     12  N   ASN A   4      20.403  21.824  28.076  0.00  0.00    -0.297 N 
ATOM     13  H   ASN A   4      21.101  22.243  28.723  0.00  0.00    +0.150 HD
ATOM     14  O   ILE A   3      19.932  21.025  26.043  0.00  0.00    -0.273 OA
BRANCH  11  15
ATOM     15  CA  ILE A   3      22.011  22.151  26.272  0.00  0.00    +0.149 C 
BRANCH  15  18
ATOM     16  C   PRO A   2      23.633  21.322  24.638  0.00  0.00    +0.241 C 
ATOM     17  O   PRO A   2      24.543  21.906  25.216  0.00  0.00    -0.273 OA
ATOM     18  N   ILE A   3      22.418  21.372  25.123  0.00  0.00    -0.297 N 
ATOM     19  H   ILE A   3      21.688  20.807  24.644  0.00  0.00    +0.150 HD
BRANCH  16  23
ATOM     20  C   THR A   1      22.678  18.464  23.999  0.00  0.00    +0.244 C 
ATOM     21  O   THR A   1      23.408  18.336  24.991  0.00  0.00    -0.273 OA
ATOM     22  N   PRO A   2      22.827  19.486  23.158  0.00  0.00    -0.272 N 
ATOM     23  CA  PRO A   2      23.868  20.502  23.373  0.00  0.00    +0.152 C 
ATOM     24  CB  PRO A   2      23.756  21.391  22.136  0.00  0.00    +0.031 C 
ATOM     25  CG  PRO A   2      22.335  21.200  21.641  0.00  0.00    +0.024 C 
ATOM     26  CD  PRO A   2      22.024  19.738  21.946  0.00  0.00    +0.094 C 
BRANCH  20  27
ATOM     27  CA  THR A   1      21.589  17.412  23.782  0.00  0.00    +0.172 C 
BRANCH  27  28
ATOM     28  N   THR A   1      22.026  16.101  24.239  0.00  0.00    -0.236 NA
ATOM     29  H   THR A   1      22.351  15.975  25.219  0.00  0.00    +0.142 HD
ENDBRANCH  27  28
BRANCH  27  30
ATOM     30  CB  THR A   1      20.268  17.783  24.482  0.00  0.00    +0.135 C 
ATOM     31  CG2 THR A   1      20.330  17.749  25.992  0.00  0.00    +0.034 C 
BRANCH  30  32
ATOM     32  OG1 THR A   1      19.940  19.105  24.067  0.00  0.00    -0.383 OA
ATOM     33  HG1 THR A   1      20.666  19.723  24.334  0.00  0.00    +0.210 HD
ENDBRANCH  30  32
ENDBRANCH  27  30
ENDBRANCH  20  27
ENDBRANCH  16  23
ENDBRANCH  15  18
BRANCH  15  34
ATOM     34  CB  ILE A   3      21.879  23.629  25.837  0.00  0.00    +0.027 C 
ATOM     35  CG2 ILE A   3      20.713  23.769  24.856  0.00  0.00    +0.002 C 
BRANCH  34  36
ATOM     36  CG1 ILE A   3      21.747  24.619  26.984  0.00  0.00    +0.002 C 
ATOM     37  CD1 ILE A   3      22.049  26.049  26.516  0.00  0.00    +0.000 C 
ENDBRANCH  34  36
ENDBRANCH  15  34
ENDBRANCH  11  15
ENDBRANCH  10  12
BRANCH  10  38
ATOM     38  CB  ASN A   4      18.981  21.633  30.071  0.00  0.00    +0.114 C 
BRANCH  38  39
ATOM     39  CG  ASN A   4      19.937  20.728  30.831  0.00  0.00    +0.222 C 
ATOM     40  ND2 ASN A   4      20.504  21.280  31.881  0.00  0.00    -0.329 N 
ATOM     41 HD21 ASN A   4      21.187  20.738  32.448  0.00  0.00    +0.145 HD
ATOM     42 HD22 ASN A   4      20.270  22.259  32.144  0.00  0.00    +0.145 HD
ATOM     43  OD1 ASN A   4      20.166  19.578  30.462  0.00  0.00    -0.275 OA
ENDBRANCH  38  39
ENDBRANCH  10  38
ENDBRANCH   6  10
ENDBRANCH   5   8
BRANCH   5  44
ATOM     44  CB  ILE A   5      15.902  21.844  25.209  0.00  0.00    +0.027 C 
ATOM     45  CG2 ILE A   5      14.673  22.280  24.440  0.00  0.00    +0.002 C 
BRANCH  44  46
ATOM     46  CG1 ILE A   5      17.174  22.208  24.427  0.00  0.00    +0.002 C 
ATOM     47  CD1 ILE A   5      17.296  21.383  23.151  0.00  0.00    +0.000 C 
ENDBRANCH  44  46
ENDBRANCH   5  44
ENDBRANCH   1   5
BRANCH   2  48
ATOM     48  CA  ILE A   6      12.452  23.226  27.959  0.00  0.00    +0.149 C 
BRANCH  48  49
ATOM     49  C   ILE A   6      11.626  23.473  26.731  0.00  0.00    +0.241 C 
ATOM     50  N   GLY A   7      10.919  22.460  26.298  0.00  0.00    -0.295 N 
ATOM     51  H   GLY A   7      10.948  21.570  26.835  0.00  0.00    +0.150 HD
ATOM     52  O   ILE A   6      11.685  24.569  26.122  0.00  0.00    -0.273 OA
BRANCH  50  53
ATOM     53  CA  GLY A   7      10.112  22.519  25.125  0.00  0.00    +0.176 C 
BRANCH  53  54
ATOM     54  C   GLY A   7       8.644  22.778  25.368  0.00  0.00    +0.243 C 
ATOM     55  O   GLY A   7       8.232  23.023  26.494  0.00  0.00    -0.273 OA
ATOM     56  N   ARG A   8       7.877  22.707  24.286  0.00  0.00    -0.297 N 
ATOM     57  H   ARG A   8       8.255  22.333  23.392  0.00  0.00    +0.150 HD
BRANCH  56  58
ATOM     58  CA  ARG A   8       6.494  23.163  24.374  0.00  0.00    +0.149 C 
BRANCH  58  59
ATOM     59  C   ARG A   8       5.650  22.371  25.363  0.00  0.00    +0.241 C 
ATOM     60  O   ARG A   8       4.699  22.927  25.932  0.00  0.00    -0.273 OA
ATOM     61  N   ASN A   9       5.937  21.076  25.561  0.00  0.00    -0.298 N 
ATOM     62  H   ASN A   9       6.728  20.636  25.048  0.00  0.00    +0.150 HD
BRANCH  61  63
ATOM     63  CA  ASN A   9       5.152  20.292  26.483  0.00  0.00    +0.146 C 
BRANCH  63  64
ATOM     64  C   ASN A   9       5.148  20.905  27.878  0.00  0.00    +0.227 C 
ATOM     65  O   ASN A   9       4.117  20.823  28.551  0.00  0.00    -0.286 OA
ENDBRANCH  63  64
BRANCH  63  66
ATOM     66  CB  ASN A   9       5.581  18.826  26.486  0.00  0.00    +0.112 C 
BRANCH  66  67
ATOM     67  CG  ASN A   9       6.894  18.604  27.190  0.00  0.00    +0.222 C 
ATOM     68  ND2 ASN A   9       6.883  17.675  28.142  0.00  0.00    -0.329 N 
ATOM     69 HD21 ASN A   9       7.750  17.471  28.680  0.00  0.00    +0.145 HD
ATOM     70 HD22 ASN A   9       6.008  17.153  28.349  0.00  0.00    +0.145 HD
ATOM     71  OD1 ASN A   9       7.881  19.299  26.848  0.00  0.00    -0.275 OA
ENDBRANCH  66  67
ENDBRANCH  63  66
ENDBRANCH  61  63
ENDBRANCH  58  59
BRANCH  58  72
ATOM     72  CB  ARG A   8       5.834  23.131  22.980  0.00  0.00    +0.033 C 
BRANCH  72  73
ATOM     73  CG  ARG A   8       6.414  24.134  22.002  0.00  0.00    +0.045 C 
BRANCH  73  74
ATOM     74  CD  ARG A   8       5.620  24.269  20.723  0.00  0.00    +0.174 C 
BRANCH  74  75
ATOM     75  NE  ARG A   8       5.606  23.022  19.945  0.00  0.00    -0.265 N 
ATOM     76  CZ  ARG A   8       4.682  22.072  19.941  0.00  0.00    +0.342 C 
ATOM     77  NH2 ARG A   8       3.574  22.174  20.644  0.00  0.00    -0.292 N 
ATOM     78 HH21 ARG A   8       3.403  23.019  21.225  0.00  0.00    +0.255 HD
ATOM     79 HH22 ARG A   8       2.869  21.409  20.618  0.00  0.00    +0.255 HD
ATOM     80  NH1 ARG A   8       4.829  20.985  19.209  0.00  0.00    -0.292 N 
ATOM     81 HH11 ARG A   8       4.094  20.249  19.217  0.00  0.00    +0.255 HD
ATOM     82 HH12 ARG A   8       5.680  20.864  18.623  0.00  0.00    +0.255 HD
ATOM     83  HE  ARG A   8       6.423  22.866  19.320  0.00  0.00    +0.259 HD
ENDBRANCH  74  75
ENDBRANCH  73  74
ENDBRANCH  72  73
ENDBRANCH  58  72
ENDBRANCH  56  58
ENDBRANCH  53  54
ENDBRANCH  50  53
ENDBRANCH  48  49
BRANCH  48  84
ATOM     84  CB  ILE A   6      12.135  24.268  29.050  0.00  0.00    +0.027 C 
ATOM     85  CG2 ILE A   6      10.645  24.164  29.396  0.00  0.00    +0.002 C 
BRANCH  84  86
ATOM     86  CG1 ILE A   6      13.051  24.149  30.272  0.00  0.00    +0.002 C 
ATOM     87  CD1 ILE A   6      13.102  22.791  30.910  0.00  0.00    +0.000 C 
ENDBRANCH  84  86
ENDBRANCH  48  84
ENDBRANCH   2  48
TORSDOF 33
REMARK  Name = ../refined-set-2016/3s43/3s43_pocket.pdb
REMARK  235 active torsions:
REMARK  status: ('A' for Active; 'I' for Inactive)
REMARK    1  A    between atoms: _1  and  _3
REMARK    2  A    between atoms: _3  and  _4
REMARK    3  A    between atoms: _3  and  _6
REMARK    4  A    between atoms: _6  and  _7
REMARK    5  A    between atoms: _7  and  _8
REMARK    6  A    between atoms: _8  and  _9
REMARK    7  A    between atoms: _18  and  _20
REMARK    8  A    between atoms: _20  and  _21
REMARK    9  A    between atoms: _20  and  _23
REMARK   10  A    between atoms: _23  and  _24
REMARK   11  A    between atoms: _27  and  _29
REMARK   12  A    between atoms: _29  and  _30
REMARK   13  A    between atoms: _29  and  _32
REMARK   14  A    between atoms: _32  and  _33
REMARK   15  A    between atoms: _36  and  _38
REMARK   16  A    between atoms: _38  and  _39
REMARK   17  A    between atoms: _38  and  _41
REMARK   18  A    between atoms: _41  and  _42
REMARK   19  A    between atoms: _45  and  _47
REMARK   20  A    between atoms: _47  and  _48
REMARK   21  A    between atoms: _47  and  _50
REMARK   22  A    between atoms: _50  and  _51
REMARK   23  A    between atoms: _54  and  _56
REMARK   24  A    between atoms: _56  and  _57
REMARK   25  A    between atoms: _59  and  _61
REMARK   26  A    between atoms: _61  and  _62
REMARK   27  A    between atoms: _65  and  _67
REMARK   28  A    between atoms: _67  and  _68
REMARK   29  A    between atoms: _67  and  _70
REMARK   30  A    between atoms: _70  and  _71
REMARK   31  A    between atoms: _74  and  _76
REMARK   32  A    between atoms: _76  and  _77
REMARK   33  A    between atoms: _76  and  _79
REMARK   34  A    between atoms: _79  and  _80
REMARK   35  A    between atoms: _83  and  _85
REMARK   36  A    between atoms: _85  and  _86
REMARK   37  A    between atoms: _85  and  _88
REMARK   38  A    between atoms: _88  and  _89
REMARK   39  A    between atoms: _92  and  _94
REMARK   40  A    between atoms: _94  and  _95
REMARK   41  A    between atoms: _94  and  _97
REMARK   42  A    between atoms: _97  and  _98
REMARK   43  A    between atoms: _101  and  _103
REMARK   44  A    between atoms: _103  and  _104
REMARK   45  A    between atoms: _103  and  _106
REMARK   46  A    between atoms: _106  and  _107
REMARK   47  A    between atoms: _107  and  _108
REMARK   48  A    between atoms: _108  and  _109
REMARK   49  A    between atoms: _109  and  _110
REMARK   50  A    between atoms: _114  and  _116
REMARK   51  A    between atoms: _116  and  _117
REMARK   52  A    between atoms: _116  and  _119
REMARK   53  A    between atoms: _119  and  _120
REMARK   54  A    between atoms: _120  and  _121
REMARK   55  A    between atoms: _123  and  _125
REMARK   56  A    between atoms: _125  and  _126
REMARK   57  A    between atoms: _125  and  _128
REMARK   58  A    between atoms: _131  and  _133
REMARK   59  A    between atoms: _133  and  _134
REMARK   60  A    between atoms: _136  and  _138
REMARK   61  A    between atoms: _138  and  _139
REMARK   62  A    between atoms: _141  and  _143
REMARK   63  A    between atoms: _143  and  _144
REMARK   64  A    between atoms: _143  and  _146
REMARK   65  A    between atoms: _146  and  _147
REMARK   66  A    between atoms: _150  and  _152
REMARK   67  A    between atoms: _152  and  _153
REMARK   68  A    between atoms: _155  and  _157
REMARK   69  A    between atoms: _157  and  _158
REMARK   70  A    between atoms: _160  and  _162
REMARK   71  A    between atoms: _162  and  _163
REMARK   72  A    between atoms: _162  and  _165
REMARK   73  A    between atoms: _165  and  _166
REMARK   74  A    between atoms: _172  and  _174
REMARK   75  A    between atoms: _174  and  _175
REMARK   76  A    between atoms: _174  and  _177
REMARK   77  A    between atoms: _177  and  _178
REMARK   78  A    between atoms: _181  and  _183
REMARK   79  A    between atoms: _183  and  _184
REMARK   80  A    between atoms: _183  and  _186
REMARK   81  A    between atoms: _189  and  _191
REMARK   82  A    between atoms: _191  and  _192
REMARK   83  A    between atoms: _191  and  _194
REMARK   84  A    between atoms: _194  and  _195
REMARK   85  A    between atoms: _198  and  _200
REMARK   86  A    between atoms: _200  and  _201
REMARK   87  A    between atoms: _200  and  _203
REMARK   88  A    between atoms: _203  and  _204
REMARK   89  A    between atoms: _208  and  _209
REMARK   90  A    between atoms: _214  and  _216
REMARK   91  A    between atoms: _216  and  _217
REMARK   92  A    between atoms: _216  and  _219
REMARK   93  A    between atoms: _219  and  _220
REMARK   94  A    between atoms: _223  and  _225
REMARK   95  A    between atoms: _225  and  _226
REMARK   96  A    between atoms: _225  and  _228
REMARK   97  A    between atoms: _228  and  _229
REMARK   98  A    between atoms: _234  and  _236
REMARK   99  A    between atoms: _236  and  _237
REMARK  100  A    between atoms: _236  and  _239
REMARK  101  A    between atoms: _239  and  _240
REMARK  102  A    between atoms: _243  and  _245
REMARK  103  A    between atoms: _245  and  _246
REMARK  104  A    between atoms: _245  and  _248
REMARK  105  A    between atoms: _248  and  _249
REMARK  106  A    between atoms: _252  and  _254
REMARK  107  A    between atoms: _254  and  _255
REMARK  108  A    between atoms: _257  and  _259
REMARK  109  A    between atoms: _259  and  _260
REMARK  110  A    between atoms: _259  and  _262
REMARK  111  A    between atoms: _262  and  _263
REMARK  112  A    between atoms: _263  and  _264
REMARK  113  A    between atoms: _264  and  _265
REMARK  114  A    between atoms: _274  and  _276
REMARK  115  A    between atoms: _276  and  _277
REMARK  116  A    between atoms: _276  and  _279
REMARK  117  A    between atoms: _279  and  _280
REMARK  118  A    between atoms: _285  and  _287
REMARK  119  A    between atoms: _287  and  _288
REMARK  120  A    between atoms: _287  and  _290
REMARK  121  A    between atoms: _290  and  _291
REMARK  122  A    between atoms: _291  and  _292
REMARK  123  A    between atoms: _292  and  _293
REMARK  124  A    between atoms: _302  and  _304
REMARK  125  A    between atoms: _304  and  _305
REMARK  126  A    between atoms: _304  and  _307
REMARK  127  A    between atoms: _307  and  _308
REMARK  128  A    between atoms: _311  and  _313
REMARK  129  A    between atoms: _313  and  _314
REMARK  130  A    between atoms: _313  and  _316
REMARK  131  A    between atoms: _316  and  _317
REMARK  132  A    between atoms: _320  and  _322
REMARK  133  A    between atoms: _322  and  _323
REMARK  134  A    between atoms: _322  and  _325
REMARK  135  A    between atoms: _325  and  _326
REMARK  136  A    between atoms: _329  and  _331
REMARK  137  A    between atoms: _331  and  _332
REMARK  138  A    between atoms: _331  and  _334
REMARK  139  A    between atoms: _334  and  _335
REMARK  140  A    between atoms: _338  and  _340
REMARK  141  A    between atoms: _340  and  _341
REMARK  142  A    between atoms: _343  and  _345
REMARK  143  A    between atoms: _345  and  _346
REMARK  144  A    between atoms: _349  and  _351
REMARK  145  A    between atoms: _351  and  _352
REMARK  146  A    between atoms: _351  and  _354
REMARK  147  A    between atoms: _354  and  _355
REMARK  148  A    between atoms: _358  and  _360
REMARK  149  A    between atoms: _360  and  _361
REMARK  150  A    between atoms: _360  and  _363
REMARK  151  A    between atoms: _363  and  _364
REMARK  152  A    between atoms: _367  and  _369
REMARK  153  A    between atoms: _369  and  _370
REMARK  154  A    between atoms: _369  and  _372
REMARK  155  A    between atoms: _372  and  _373
REMARK  156  A    between atoms: _376  and  _378
REMARK  157  A    between atoms: _378  and  _379
REMARK  158  A    between atoms: _378  and  _381
REMARK  159  A    between atoms: _381  and  _382
REMARK  160  A    between atoms: _385  and  _387
REMARK  161  A    between atoms: _387  and  _388
REMARK  162  A    between atoms: _387  and  _390
REMARK  163  A    between atoms: _390  and  _391
REMARK  164  A    between atoms: _394  and  _396
REMARK  165  A    between atoms: _396  and  _397
REMARK  166  A    between atoms: _396  and  _399
REMARK  167  A    between atoms: _399  and  _400
REMARK  168  A    between atoms: _400  and  _401
REMARK  169  A    between atoms: _401  and  _402
REMARK  170  A    between atoms: _402  and  _403
REMARK  171  A    between atoms: _407  and  _409
REMARK  172  A    between atoms: _409  and  _410
REMARK  173  A    between atoms: _409  and  _412
REMARK  174  A    between atoms: _412  and  _413
REMARK  175  A    between atoms: _413  and  _414
REMARK  176  A    between atoms: _416  and  _418
REMARK  177  A    between atoms: _418  and  _419
REMARK  178  A    between atoms: _418  and  _421
REMARK  179  A    between atoms: _424  and  _426
REMARK  180  A    between atoms: _426  and  _427
REMARK  181  A    between atoms: _429  and  _431
REMARK  182  A    between atoms: _431  and  _432
REMARK  183  A    between atoms: _434  and  _436
REMARK  184  A    between atoms: _436  and  _437
REMARK  185  A    between atoms: _436  and  _439
REMARK  186  A    between atoms: _439  and  _440
REMARK  187  A    between atoms: _443  and  _445
REMARK  188  A    between atoms: _445  and  _446
REMARK  189  A    between atoms: _448  and  _450
REMARK  190  A    between atoms: _450  and  _451
REMARK  191  A    between atoms: _453  and  _455
REMARK  192  A    between atoms: _455  and  _456
REMARK  193  A    between atoms: _455  and  _458
REMARK  194  A    between atoms: _458  and  _459
REMARK  195  A    between atoms: _465  and  _467
REMARK  196  A    between atoms: _467  and  _468
REMARK  197  A    between atoms: _467  and  _470
REMARK  198  A    between atoms: _470  and  _471
REMARK  199  A    between atoms: _474  and  _476
REMARK  200  A    between atoms: _476  and  _477
REMARK  201  A    between atoms: _476  and  _479
REMARK  202  A    between atoms: _479  and  _480
REMARK  203  A    between atoms: _483  and  _485
REMARK  204  A    between atoms: _485  and  _486
REMARK  205  A    between atoms: _485  and  _488
REMARK  206  A    between atoms: _488  and  _489
REMARK  207  A    between atoms: _493  and  _494
REMARK  208  A    between atoms: _499  and  _501
REMARK  209  A    between atoms: _501  and  _502
REMARK  210  A    between atoms: _501  and  _504
REMARK  211  A    between atoms: _504  and  _505
REMARK  212  A    between atoms: _508  and  _510
REMARK  213  A    between atoms: _510  and  _511
REMARK  214  A    between atoms: _510  and  _513
REMARK  215  A    between atoms: _513  and  _514
REMARK  216  A    between atoms: _519  and  _521
REMARK  217  A    between atoms: _521  and  _522
REMARK  218  A    between atoms: _521  and  _524
REMARK  219  A    between atoms: _524  and  _525
REMARK  220  A    between atoms: _528  and  _530
REMARK  221  A    between atoms: _530  and  _531
REMARK  222  A    between atoms: _530  and  _533
REMARK  223  A    between atoms: _533  and  _534
REMARK  224  A    between atoms: _537  and  _539
REMARK  225  A    between atoms: _539  and  _540
REMARK  226  A    between atoms: _542  and  _544
REMARK  227  A    between atoms: _544  and  _545
REMARK  228  A    between atoms: _544  and  _547
REMARK  229  A    between atoms: _547  and  _548
REMARK  230  A    between atoms: _548  and  _549
REMARK  231  A    between atoms: _549  and  _550
REMARK  232  A    between atoms: _559  and  _561
REMARK  233  A    between atoms: _561  and  _562
REMARK  234  A    between atoms: _561  and  _564
REMARK  235  A    between atoms: _564  and  _565
REMARK                            x       y       z     vdW  Elec       q    Type
REMARK                         _______ _______ _______ _____ _____    ______ ____
ROOT
ATOM      1  O   HOH     1      18.295  20.581  16.759  0.00  0.00    +0.000 OA
ENDROOT
TORSDOF 0
REMARK  Name = ../refined-set-2016/3s43/3s43_pocket.pdb
REMARK  235 active torsions:
REMARK  status: ('A' for Active; 'I' for Inactive)
REMARK    1  A    between atoms: _1  and  _3
REMARK    2  A    between atoms: _3  and  _4
REMARK    3  A    between atoms: _3  and  _6
REMARK    4  A    between atoms: _6  and  _7
REMARK    5  A    between atoms: _7  and  _8
REMARK    6  A    between atoms: _8  and  _9
REMARK    7  A    between atoms: _18  and  _20
REMARK    8  A    between atoms: _20  and  _21
REMARK    9  A    between atoms: _20  and  _23
REMARK   10  A    between atoms: _23  and  _24
REMARK   11  A    between atoms: _27  and  _29
REMARK   12  A    between atoms: _29  and  _30
REMARK   13  A    between atoms: _29  and  _32
REMARK   14  A    between atoms: _32  and  _33
REMARK   15  A    between atoms: _36  and  _38
REMARK   16  A    between atoms: _38  and  _39
REMARK   17  A    between atoms: _38  and  _41
REMARK   18  A    between atoms: _41  and  _42
REMARK   19  A    between atoms: _45  and  _47
REMARK   20  A    between atoms: _47  and  _48
REMARK   21  A    between atoms: _47  and  _50
REMARK   22  A    between atoms: _50  and  _51
REMARK   23  A    between atoms: _54  and  _56
REMARK   24  A    between atoms: _56  and  _57
REMARK   25  A    between atoms: _59  and  _61
REMARK   26  A    between atoms: _61  and  _62
REMARK   27  A    between atoms: _65  and  _67
REMARK   28  A    between atoms: _67  and  _68
REMARK   29  A    between atoms: _67  and  _70
REMARK   30  A    between atoms: _70  and  _71
REMARK   31  A    between atoms: _74  and  _76
REMARK   32  A    between atoms: _76  and  _77
REMARK   33  A    between atoms: _76  and  _79
REMARK   34  A    between atoms: _79  and  _80
REMARK   35  A    between atoms: _83  and  _85
REMARK   36  A    between atoms: _85  and  _86
REMARK   37  A    between atoms: _85  and  _88
REMARK   38  A    between atoms: _88  and  _89
REMARK   39  A    between atoms: _92  and  _94
REMARK   40  A    between atoms: _94  and  _95
REMARK   41  A    between atoms: _94  and  _97
REMARK   42  A    between atoms: _97  and  _98
REMARK   43  A    between atoms: _101  and  _103
REMARK   44  A    between atoms: _103  and  _104
REMARK   45  A    between atoms: _103  and  _106
REMARK   46  A    between atoms: _106  and  _107
REMARK   47  A    between atoms: _107  and  _108
REMARK   48  A    between atoms: _108  and  _109
REMARK   49  A    between atoms: _109  and  _110
REMARK   50  A    between atoms: _114  and  _116
REMARK   51  A    between atoms: _116  and  _117
REMARK   52  A    between atoms: _116  and  _119
REMARK   53  A    between atoms: _119  and  _120
REMARK   54  A    between atoms: _120  and  _121
REMARK   55  A    between atoms: _123  and  _125
REMARK   56  A    between atoms: _125  and  _126
REMARK   57  A    between atoms: _125  and  _128
REMARK   58  A    between atoms: _131  and  _133
REMARK   59  A    between atoms: _133  and  _134
REMARK   60  A    between atoms: _136  and  _138
REMARK   61  A    between atoms: _138  and  _139
REMARK   62  A    between atoms: _141  and  _143
REMARK   63  A    between atoms: _143  and  _144
REMARK   64  A    between atoms: _143  and  _146
REMARK   65  A    between atoms: _146  and  _147
REMARK   66  A    between atoms: _150  and  _152
REMARK   67  A    between atoms: _152  and  _153
REMARK   68  A    between atoms: _155  and  _157
REMARK   69  A    between atoms: _157  and  _158
REMARK   70  A    between atoms: _160  and  _162
REMARK   71  A    between atoms: _162  and  _163
REMARK   72  A    between atoms: _162  and  _165
REMARK   73  A    between atoms: _165  and  _166
REMARK   74  A    between atoms: _172  and  _174
REMARK   75  A    between atoms: _174  and  _175
REMARK   76  A    between atoms: _174  and  _177
REMARK   77  A    between atoms: _177  and  _178
REMARK   78  A    between atoms: _181  and  _183
REMARK   79  A    between atoms: _183  and  _184
REMARK   80  A    between atoms: _183  and  _186
REMARK   81  A    between atoms: _189  and  _191
REMARK   82  A    between atoms: _191  and  _192
REMARK   83  A    between atoms: _191  and  _194
REMARK   84  A    between atoms: _194  and  _195
REMARK   85  A    between atoms: _198  and  _200
REMARK   86  A    between atoms: _200  and  _201
REMARK   87  A    between atoms: _200  and  _203
REMARK   88  A    between atoms: _203  and  _204
REMARK   89  A    between atoms: _208  and  _209
REMARK   90  A    between atoms: _214  and  _216
REMARK   91  A    between atoms: _216  and  _217
REMARK   92  A    between atoms: _216  and  _219
REMARK   93  A    between atoms: _219  and  _220
REMARK   94  A    between atoms: _223  and  _225
REMARK   95  A    between atoms: _225  and  _226
REMARK   96  A    between atoms: _225  and  _228
REMARK   97  A    between atoms: _228  and  _229
REMARK   98  A    between atoms: _234  and  _236
REMARK   99  A    between atoms: _236  and  _237
REMARK  100  A    between atoms: _236  and  _239
REMARK  101  A    between atoms: _239  and  _240
REMARK  102  A    between atoms: _243  and  _245
REMARK  103  A    between atoms: _245  and  _246
REMARK  104  A    between atoms: _245  and  _248
REMARK  105  A    between atoms: _248  and  _249
REMARK  106  A    between atoms: _252  and  _254
REMARK  107  A    between atoms: _254  and  _255
REMARK  108  A    between atoms: _257  and  _259
REMARK  109  A    between atoms: _259  and  _260
REMARK  110  A    between atoms: _259  and  _262
REMARK  111  A    between atoms: _262  and  _263
REMARK  112  A    between atoms: _263  and  _264
REMARK  113  A    between atoms: _264  and  _265
REMARK  114  A    between atoms: _274  and  _276
REMARK  115  A    between atoms: _276  and  _277
REMARK  116  A    between atoms: _276  and  _279
REMARK  117  A    between atoms: _279  and  _280
REMARK  118  A    between atoms: _285  and  _287
REMARK  119  A    between atoms: _287  and  _288
REMARK  120  A    between atoms: _287  and  _290
REMARK  121  A    between atoms: _290  and  _291
REMARK  122  A    between atoms: _291  and  _292
REMARK  123  A    between atoms: _292  and  _293
REMARK  124  A    between atoms: _302  and  _304
REMARK  125  A    between atoms: _304  and  _305
REMARK  126  A    between atoms: _304  and  _307
REMARK  127  A    between atoms: _307  and  _308
REMARK  128  A    between atoms: _311  and  _313
REMARK  129  A    between atoms: _313  and  _314
REMARK  130  A    between atoms: _313  and  _316
REMARK  131  A    between atoms: _316  and  _317
REMARK  132  A    between atoms: _320  and  _322
REMARK  133  A    between atoms: _322  and  _323
REMARK  134  A    between atoms: _322  and  _325
REMARK  135  A    between atoms: _325  and  _326
REMARK  136  A    between atoms: _329  and  _331
REMARK  137  A    between atoms: _331  and  _332
REMARK  138  A    between atoms: _331  and  _334
REMARK  139  A    between atoms: _334  and  _335
REMARK  140  A    between atoms: _338  and  _340
REMARK  141  A    between atoms: _340  and  _341
REMARK  142  A    between atoms: _343  and  _345
REMARK  143  A    between atoms: _345  and  _346
REMARK  144  A    between atoms: _349  and  _351
REMARK  145  A    between atoms: _351  and  _352
REMARK  146  A    between atoms: _351  and  _354
REMARK  147  A    between atoms: _354  and  _355
REMARK  148  A    between atoms: _358  and  _360
REMARK  149  A    between atoms: _360  and  _361
REMARK  150  A    between atoms: _360  and  _363
REMARK  151  A    between atoms: _363  and  _364
REMARK  152  A    between atoms: _367  and  _369
REMARK  153  A    between atoms: _369  and  _370
REMARK  154  A    between atoms: _369  and  _372
REMARK  155  A    between atoms: _372  and  _373
REMARK  156  A    between atoms: _376  and  _378
REMARK  157  A    between atoms: _378  and  _379
REMARK  158  A    between atoms: _378  and  _381
REMARK  159  A    between atoms: _381  and  _382
REMARK  160  A    between atoms: _385  and  _387
REMARK  161  A    between atoms: _387  and  _388
REMARK  162  A    between atoms: _387  and  _390
REMARK  163  A    between atoms: _390  and  _391
REMARK  164  A    between atoms: _394  and  _396
REMARK  165  A    between atoms: _396  and  _397
REMARK  166  A    between atoms: _396  and  _399
REMARK  167  A    between atoms: _399  and  _400
REMARK  168  A    between atoms: _400  and  _401
REMARK  169  A    between atoms: _401  and  _402
REMARK  170  A    between atoms: _402  and  _403
REMARK  171  A    between atoms: _407  and  _409
REMARK  172  A    between atoms: _409  and  _410
REMARK  173  A    between atoms: _409  and  _412
REMARK  174  A    between atoms: _412  and  _413
REMARK  175  A    between atoms: _413  and  _414
REMARK  176  A    between atoms: _416  and  _418
REMARK  177  A    between atoms: _418  and  _419
REMARK  178  A    between atoms: _418  and  _421
REMARK  179  A    between atoms: _424  and  _426
REMARK  180  A    between atoms: _426  and  _427
REMARK  181  A    between atoms: _429  and  _431
REMARK  182  A    between atoms: _431  and  _432
REMARK  183  A    between atoms: _434  and  _436
REMARK  184  A    between atoms: _436  and  _437
REMARK  185  A    between atoms: _436  and  _439
REMARK  186  A    between atoms: _439  and  _440
REMARK  187  A    between atoms: _443  and  _445
REMARK  188  A    between atoms: _445  and  _446
REMARK  189  A    between atoms: _448  and  _450
REMARK  190  A    between atoms: _450  and  _451
REMARK  191  A    between atoms: _453  and  _455
REMARK  192  A    between atoms: _455  and  _456
REMARK  193  A    between atoms: _455  and  _458
REMARK  194  A    between atoms: _458  and  _459
REMARK  195  A    between atoms: _465  and  _467
REMARK  196  A    between atoms: _467  and  _468
REMARK  197  A    between atoms: _467  and  _470
REMARK  198  A    between atoms: _470  and  _471
REMARK  199  A    between atoms: _474  and  _476
REMARK  200  A    between atoms: _476  and  _477
REMARK  201  A    between atoms: _476  and  _479
REMARK  202  A    between atoms: _479  and  _480
REMARK  203  A    between atoms: _483  and  _485
REMARK  204  A    between atoms: _485  and  _486
REMARK  205  A    between atoms: _485  and  _488
REMARK  206  A    between atoms: _488  and  _489
REMARK  207  A    between atoms: _493  and  _494
REMARK  208  A    between atoms: _499  and  _501
REMARK  209  A    between atoms: _501  and  _502
REMARK  210  A    between atoms: _501  and  _504
REMARK  211  A    between atoms: _504  and  _505
REMARK  212  A    between atoms: _508  and  _510
REMARK  213  A    between atoms: _510  and  _511
REMARK  214  A    between atoms: _510  and  _513
REMARK  215  A    between atoms: _513  and  _514
REMARK  216  A    between atoms: _519  and  _521
REMARK  217  A    between atoms: _521  and  _522
REMARK  218  A    between atoms: _521  and  _524
REMARK  219  A    between atoms: _524  and  _525
REMARK  220  A    between atoms: _528  and  _530
REMARK  221  A    between atoms: _530  and  _531
REMARK  222  A    between atoms: _530  and  _533
REMARK  223  A    between atoms: _533  and  _534
REMARK  224  A    between atoms: _537  and  _539
REMARK  225  A    between atoms: _539  and  _540
REMARK  226  A    between atoms: _542  and  _544
REMARK  227  A    between atoms: _544  and  _545
REMARK  228  A    between atoms: _544  and  _547
REMARK  229  A    between atoms: _547  and  _548
REMARK  230  A    between atoms: _548  and  _549
REMARK  231  A    between atoms: _549  and  _550
REMARK  232  A    between atoms: _559  and  _561
REMARK  233  A    between atoms: _561  and  _562
REMARK  234  A    between atoms: _561  and  _564
REMARK  235  A    between atoms: _564  and  _565
REMARK                            x       y       z     vdW  Elec       q    Type
REMARK                         _______ _______ _______ _____ _____    ______ ____
ROOT
ATOM      1  O   HOH     1      18.388  30.906  21.763  0.00  0.00    +0.000 OA
ENDROOT
TORSDOF 0
REMARK  Name = ../refined-set-2016/3s43/3s43_pocket.pdb
REMARK  235 active torsions:
REMARK  status: ('A' for Active; 'I' for Inactive)
REMARK    1  A    between atoms: _1  and  _3
REMARK    2  A    between atoms: _3  and  _4
REMARK    3  A    between atoms: _3  and  _6
REMARK    4  A    between atoms: _6  and  _7
REMARK    5  A    between atoms: _7  and  _8
REMARK    6  A    between atoms: _8  and  _9
REMARK    7  A    between atoms: _18  and  _20
REMARK    8  A    between atoms: _20  and  _21
REMARK    9  A    between atoms: _20  and  _23
REMARK   10  A    between atoms: _23  and  _24
REMARK   11  A    between atoms: _27  and  _29
REMARK   12  A    between atoms: _29  and  _30
REMARK   13  A    between atoms: _29  and  _32
REMARK   14  A    between atoms: _32  and  _33
REMARK   15  A    between atoms: _36  and  _38
REMARK   16  A    between atoms: _38  and  _39
REMARK   17  A    between atoms: _38  and  _41
REMARK   18  A    between atoms: _41  and  _42
REMARK   19  A    between atoms: _45  and  _47
REMARK   20  A    between atoms: _47  and  _48
REMARK   21  A    between atoms: _47  and  _50
REMARK   22  A    between atoms: _50  and  _51
REMARK   23  A    between atoms: _54  and  _56
REMARK   24  A    between atoms: _56  and  _57
REMARK   25  A    between atoms: _59  and  _61
REMARK   26  A    between atoms: _61  and  _62
REMARK   27  A    between atoms: _65  and  _67
REMARK   28  A    between atoms: _67  and  _68
REMARK   29  A    between atoms: _67  and  _70
REMARK   30  A    between atoms: _70  and  _71
REMARK   31  A    between atoms: _74  and  _76
REMARK   32  A    between atoms: _76  and  _77
REMARK   33  A    between atoms: _76  and  _79
REMARK   34  A    between atoms: _79  and  _80
REMARK   35  A    between atoms: _83  and  _85
REMARK   36  A    between atoms: _85  and  _86
REMARK   37  A    between atoms: _85  and  _88
REMARK   38  A    between atoms: _88  and  _89
REMARK   39  A    between atoms: _92  and  _94
REMARK   40  A    between atoms: _94  and  _95
REMARK   41  A    between atoms: _94  and  _97
REMARK   42  A    between atoms: _97  and  _98
REMARK   43  A    between atoms: _101  and  _103
REMARK   44  A    between atoms: _103  and  _104
REMARK   45  A    between atoms: _103  and  _106
REMARK   46  A    between atoms: _106  and  _107
REMARK   47  A    between atoms: _107  and  _108
REMARK   48  A    between atoms: _108  and  _109
REMARK   49  A    between atoms: _109  and  _110
REMARK   50  A    between atoms: _114  and  _116
REMARK   51  A    between atoms: _116  and  _117
REMARK   52  A    between atoms: _116  and  _119
REMARK   53  A    between atoms: _119  and  _120
REMARK   54  A    between atoms: _120  and  _121
REMARK   55  A    between atoms: _123  and  _125
REMARK   56  A    between atoms: _125  and  _126
REMARK   57  A    between atoms: _125  and  _128
REMARK   58  A    between atoms: _131  and  _133
REMARK   59  A    between atoms: _133  and  _134
REMARK   60  A    between atoms: _136  and  _138
REMARK   61  A    between atoms: _138  and  _139
REMARK   62  A    between atoms: _141  and  _143
REMARK   63  A    between atoms: _143  and  _144
REMARK   64  A    between atoms: _143  and  _146
REMARK   65  A    between atoms: _146  and  _147
REMARK   66  A    between atoms: _150  and  _152
REMARK   67  A    between atoms: _152  and  _153
REMARK   68  A    between atoms: _155  and  _157
REMARK   69  A    between atoms: _157  and  _158
REMARK   70  A    between atoms: _160  and  _162
REMARK   71  A    between atoms: _162  and  _163
REMARK   72  A    between atoms: _162  and  _165
REMARK   73  A    between atoms: _165  and  _166
REMARK   74  A    between atoms: _172  and  _174
REMARK   75  A    between atoms: _174  and  _175
REMARK   76  A    between atoms: _174  and  _177
REMARK   77  A    between atoms: _177  and  _178
REMARK   78  A    between atoms: _181  and  _183
REMARK   79  A    between atoms: _183  and  _184
REMARK   80  A    between atoms: _183  and  _186
REMARK   81  A    between atoms: _189  and  _191
REMARK   82  A    between atoms: _191  and  _192
REMARK   83  A    between atoms: _191  and  _194
REMARK   84  A    between atoms: _194  and  _195
REMARK   85  A    between atoms: _198  and  _200
REMARK   86  A    between atoms: _200  and  _201
REMARK   87  A    between atoms: _200  and  _203
REMARK   88  A    between atoms: _203  and  _204
REMARK   89  A    between atoms: _208  and  _209
REMARK   90  A    between atoms: _214  and  _216
REMARK   91  A    between atoms: _216  and  _217
REMARK   92  A    between atoms: _216  and  _219
REMARK   93  A    between atoms: _219  and  _220
REMARK   94  A    between atoms: _223  and  _225
REMARK   95  A    between atoms: _225  and  _226
REMARK   96  A    between atoms: _225  and  _228
REMARK   97  A    between atoms: _228  and  _229
REMARK   98  A    between atoms: _234  and  _236
REMARK   99  A    between atoms: _236  and  _237
REMARK  100  A    between atoms: _236  and  _239
REMARK  101  A    between atoms: _239  and  _240
REMARK  102  A    between atoms: _243  and  _245
REMARK  103  A    between atoms: _245  and  _246
REMARK  104  A    between atoms: _245  and  _248
REMARK  105  A    between atoms: _248  and  _249
REMARK  106  A    between atoms: _252  and  _254
REMARK  107  A    between atoms: _254  and  _255
REMARK  108  A    between atoms: _257  and  _259
REMARK  109  A    between atoms: _259  and  _260
REMARK  110  A    between atoms: _259  and  _262
REMARK  111  A    between atoms: _262  and  _263
REMARK  112  A    between atoms: _263  and  _264
REMARK  113  A    between atoms: _264  and  _265
REMARK  114  A    between atoms: _274  and  _276
REMARK  115  A    between atoms: _276  and  _277
REMARK  116  A    between atoms: _276  and  _279
REMARK  117  A    between atoms: _279  and  _280
REMARK  118  A    between atoms: _285  and  _287
REMARK  119  A    between atoms: _287  and  _288
REMARK  120  A    between atoms: _287  and  _290
REMARK  121  A    between atoms: _290  and  _291
REMARK  122  A    between atoms: _291  and  _292
REMARK  123  A    between atoms: _292  and  _293
REMARK  124  A    between atoms: _302  and  _304
REMARK  125  A    between atoms: _304  and  _305
REMARK  126  A    between atoms: _304  and  _307
REMARK  127  A    between atoms: _307  and  _308
REMARK  128  A    between atoms: _311  and  _313
REMARK  129  A    between atoms: _313  and  _314
REMARK  130  A    between atoms: _313  and  _316
REMARK  131  A    between atoms: _316  and  _317
REMARK  132  A    between atoms: _320  and  _322
REMARK  133  A    between atoms: _322  and  _323
REMARK  134  A    between atoms: _322  and  _325
REMARK  135  A    between atoms: _325  and  _326
REMARK  136  A    between atoms: _329  and  _331
REMARK  137  A    between atoms: _331  and  _332
REMARK  138  A    between atoms: _331  and  _334
REMARK  139  A    between atoms: _334  and  _335
REMARK  140  A    between atoms: _338  and  _340
REMARK  141  A    between atoms: _340  and  _341
REMARK  142  A    between atoms: _343  and  _345
REMARK  143  A    between atoms: _345  and  _346
REMARK  144  A    between atoms: _349  and  _351
REMARK  145  A    between atoms: _351  and  _352
REMARK  146  A    between atoms: _351  and  _354
REMARK  147  A    between atoms: _354  and  _355
REMARK  148  A    between atoms: _358  and  _360
REMARK  149  A    between atoms: _360  and  _361
REMARK  150  A    between atoms: _360  and  _363
REMARK  151  A    between atoms: _363  and  _364
REMARK  152  A    between atoms: _367  and  _369
REMARK  153  A    between atoms: _369  and  _370
REMARK  154  A    between atoms: _369  and  _372
REMARK  155  A    between atoms: _372  and  _373
REMARK  156  A    between atoms: _376  and  _378
REMARK  157  A    between atoms: _378  and  _379
REMARK  158  A    between atoms: _378  and  _381
REMARK  159  A    between atoms: _381  and  _382
REMARK  160  A    between atoms: _385  and  _387
REMARK  161  A    between atoms: _387  and  _388
REMARK  162  A    between atoms: _387  and  _390
REMARK  163  A    between atoms: _390  and  _391
REMARK  164  A    between atoms: _394  and  _396
REMARK  165  A    between atoms: _396  and  _397
REMARK  166  A    between atoms: _396  and  _399
REMARK  167  A    between atoms: _399  and  _400
REMARK  168  A    between atoms: _400  and  _401
REMARK  169  A    between atoms: _401  and  _402
REMARK  170  A    between atoms: _402  and  _403
REMARK  171  A    between atoms: _407  and  _409
REMARK  172  A    between atoms: _409  and  _410
REMARK  173  A    between atoms: _409  and  _412
REMARK  174  A    between atoms: _412  and  _413
REMARK  175  A    between atoms: _413  and  _414
REMARK  176  A    between atoms: _416  and  _418
REMARK  177  A    between atoms: _418  and  _419
REMARK  178  A    between atoms: _418  and  _421
REMARK  179  A    between atoms: _424  and  _426
REMARK  180  A    between atoms: _426  and  _427
REMARK  181  A    between atoms: _429  and  _431
REMARK  182  A    between atoms: _431  and  _432
REMARK  183  A    between atoms: _434  and  _436
REMARK  184  A    between atoms: _436  and  _437
REMARK  185  A    between atoms: _436  and  _439
REMARK  186  A    between atoms: _439  and  _440
REMARK  187  A    between atoms: _443  and  _445
REMARK  188  A    between atoms: _445  and  _446
REMARK  189  A    between atoms: _448  and  _450
REMARK  190  A    between atoms: _450  and  _451
REMARK  191  A    between atoms: _453  and  _455
REMARK  192  A    between atoms: _455  and  _456
REMARK  193  A    between atoms: _455  and  _458
REMARK  194  A    between atoms: _458  and  _459
REMARK  195  A    between atoms: _465  and  _467
REMARK  196  A    between atoms: _467  and  _468
REMARK  197  A    between atoms: _467  and  _470
REMARK  198  A    between atoms: _470  and  _471
REMARK  199  A    between atoms: _474  and  _476
REMARK  200  A    between atoms: _476  and  _477
REMARK  201  A    between atoms: _476  and  _479
REMARK  202  A    between atoms: _479  and  _480
REMARK  203  A    between atoms: _483  and  _485
REMARK  204  A    between atoms: _485  and  _486
REMARK  205  A    between atoms: _485  and  _488
REMARK  206  A    between atoms: _488  and  _489
REMARK  207  A    between atoms: _493  and  _494
REMARK  208  A    between atoms: _499  and  _501
REMARK  209  A    between atoms: _501  and  _502
REMARK  210  A    between atoms: _501  and  _504
REMARK  211  A    between atoms: _504  and  _505
REMARK  212  A    between atoms: _508  and  _510
REMARK  213  A    between atoms: _510  and  _511
REMARK  214  A    between atoms: _510  and  _513
REMARK  215  A    between atoms: _513  and  _514
REMARK  216  A    between atoms: _519  and  _521
REMARK  217  A    between atoms: _521  and  _522
REMARK  218  A    between atoms: _521  and  _524
REMARK  219  A    between atoms: _524  and  _525
REMARK  220  A    between atoms: _528  and  _530
REMARK  221  A    between atoms: _530  and  _531
REMARK  222  A    between atoms: _530  and  _533
REMARK  223  A    between atoms: _533  and  _534
REMARK  224  A    between atoms: _537  and  _539
REMARK  225  A    between atoms: _539  and  _540
REMARK  226  A    between atoms: _542  and  _544
REMARK  227  A    between atoms: _544  and  _545
REMARK  228  A    between atoms: _544  and  _547
REMARK  229  A    between atoms: _547  and  _548
REMARK  230  A    between atoms: _548  and  _549
REMARK  231  A    between atoms: _549  and  _550
REMARK  232  A    between atoms: _559  and  _561
REMARK  233  A    between atoms: _561  and  _562
REMARK  234  A    between atoms: _561  and  _564
REMARK  235  A    between atoms: _564  and  _565
REMARK                            x       y       z     vdW  Elec       q    Type
REMARK                         _______ _______ _______ _____ _____    ______ ____
ROOT
ATOM      1  O   HOH     1      20.293  28.865  21.473  0.00  0.00    +0.000 OA
ENDROOT
TORSDOF 0
REMARK  Name = ../refined-set-2016/3s43/3s43_pocket.pdb
REMARK  235 active torsions:
REMARK  status: ('A' for Active; 'I' for Inactive)
REMARK    1  A    between atoms: _1  and  _3
REMARK    2  A    between atoms: _3  and  _4
REMARK    3  A    between atoms: _3  and  _6
REMARK    4  A    between atoms: _6  and  _7
REMARK    5  A    between atoms: _7  and  _8
REMARK    6  A    between atoms: _8  and  _9
REMARK    7  A    between atoms: _18  and  _20
REMARK    8  A    between atoms: _20  and  _21
REMARK    9  A    between atoms: _20  and  _23
REMARK   10  A    between atoms: _23  and  _24
REMARK   11  A    between atoms: _27  and  _29
REMARK   12  A    between atoms: _29  and  _30
REMARK   13  A    between atoms: _29  and  _32
REMARK   14  A    between atoms: _32  and  _33
REMARK   15  A    between atoms: _36  and  _38
REMARK   16  A    between atoms: _38  and  _39
REMARK   17  A    between atoms: _38  and  _41
REMARK   18  A    between atoms: _41  and  _42
REMARK   19  A    between atoms: _45  and  _47
REMARK   20  A    between atoms: _47  and  _48
REMARK   21  A    between atoms: _47  and  _50
REMARK   22  A    between atoms: _50  and  _51
REMARK   23  A    between atoms: _54  and  _56
REMARK   24  A    between atoms: _56  and  _57
REMARK   25  A    between atoms: _59  and  _61
REMARK   26  A    between atoms: _61  and  _62
REMARK   27  A    between atoms: _65  and  _67
REMARK   28  A    between atoms: _67  and  _68
REMARK   29  A    between atoms: _67  and  _70
REMARK   30  A    between atoms: _70  and  _71
REMARK   31  A    between atoms: _74  and  _76
REMARK   32  A    between atoms: _76  and  _77
REMARK   33  A    between atoms: _76  and  _79
REMARK   34  A    between atoms: _79  and  _80
REMARK   35  A    between atoms: _83  and  _85
REMARK   36  A    between atoms: _85  and  _86
REMARK   37  A    between atoms: _85  and  _88
REMARK   38  A    between atoms: _88  and  _89
REMARK   39  A    between atoms: _92  and  _94
REMARK   40  A    between atoms: _94  and  _95
REMARK   41  A    between atoms: _94  and  _97
REMARK   42  A    between atoms: _97  and  _98
REMARK   43  A    between atoms: _101  and  _103
REMARK   44  A    between atoms: _103  and  _104
REMARK   45  A    between atoms: _103  and  _106
REMARK   46  A    between atoms: _106  and  _107
REMARK   47  A    between atoms: _107  and  _108
REMARK   48  A    between atoms: _108  and  _109
REMARK   49  A    between atoms: _109  and  _110
REMARK   50  A    between atoms: _114  and  _116
REMARK   51  A    between atoms: _116  and  _117
REMARK   52  A    between atoms: _116  and  _119
REMARK   53  A    between atoms: _119  and  _120
REMARK   54  A    between atoms: _120  and  _121
REMARK   55  A    between atoms: _123  and  _125
REMARK   56  A    between atoms: _125  and  _126
REMARK   57  A    between atoms: _125  and  _128
REMARK   58  A    between atoms: _131  and  _133
REMARK   59  A    between atoms: _133  and  _134
REMARK   60  A    between atoms: _136  and  _138
REMARK   61  A    between atoms: _138  and  _139
REMARK   62  A    between atoms: _141  and  _143
REMARK   63  A    between atoms: _143  and  _144
REMARK   64  A    between atoms: _143  and  _146
REMARK   65  A    between atoms: _146  and  _147
REMARK   66  A    between atoms: _150  and  _152
REMARK   67  A    between atoms: _152  and  _153
REMARK   68  A    between atoms: _155  and  _157
REMARK   69  A    between atoms: _157  and  _158
REMARK   70  A    between atoms: _160  and  _162
REMARK   71  A    between atoms: _162  and  _163
REMARK   72  A    between atoms: _162  and  _165
REMARK   73  A    between atoms: _165  and  _166
REMARK   74  A    between atoms: _172  and  _174
REMARK   75  A    between atoms: _174  and  _175
REMARK   76  A    between atoms: _174  and  _177
REMARK   77  A    between atoms: _177  and  _178
REMARK   78  A    between atoms: _181  and  _183
REMARK   79  A    between atoms: _183  and  _184
REMARK   80  A    between atoms: _183  and  _186
REMARK   81  A    between atoms: _189  and  _191
REMARK   82  A    between atoms: _191  and  _192
REMARK   83  A    between atoms: _191  and  _194
REMARK   84  A    between atoms: _194  and  _195
REMARK   85  A    between atoms: _198  and  _200
REMARK   86  A    between atoms: _200  and  _201
REMARK   87  A    between atoms: _200  and  _203
REMARK   88  A    between atoms: _203  and  _204
REMARK   89  A    between atoms: _208  and  _209
REMARK   90  A    between atoms: _214  and  _216
REMARK   91  A    between atoms: _216  and  _217
REMARK   92  A    between atoms: _216  and  _219
REMARK   93  A    between atoms: _219  and  _220
REMARK   94  A    between atoms: _223  and  _225
REMARK   95  A    between atoms: _225  and  _226
REMARK   96  A    between atoms: _225  and  _228
REMARK   97  A    between atoms: _228  and  _229
REMARK   98  A    between atoms: _234  and  _236
REMARK   99  A    between atoms: _236  and  _237
REMARK  100  A    between atoms: _236  and  _239
REMARK  101  A    between atoms: _239  and  _240
REMARK  102  A    between atoms: _243  and  _245
REMARK  103  A    between atoms: _245  and  _246
REMARK  104  A    between atoms: _245  and  _248
REMARK  105  A    between atoms: _248  and  _249
REMARK  106  A    between atoms: _252  and  _254
REMARK  107  A    between atoms: _254  and  _255
REMARK  108  A    between atoms: _257  and  _259
REMARK  109  A    between atoms: _259  and  _260
REMARK  110  A    between atoms: _259  and  _262
REMARK  111  A    between atoms: _262  and  _263
REMARK  112  A    between atoms: _263  and  _264
REMARK  113  A    between atoms: _264  and  _265
REMARK  114  A    between atoms: _274  and  _276
REMARK  115  A    between atoms: _276  and  _277
REMARK  116  A    between atoms: _276  and  _279
REMARK  117  A    between atoms: _279  and  _280
REMARK  118  A    between atoms: _285  and  _287
REMARK  119  A    between atoms: _287  and  _288
REMARK  120  A    between atoms: _287  and  _290
REMARK  121  A    between atoms: _290  and  _291
REMARK  122  A    between atoms: _291  and  _292
REMARK  123  A    between atoms: _292  and  _293
REMARK  124  A    between atoms: _302  and  _304
REMARK  125  A    between atoms: _304  and  _305
REMARK  126  A    between atoms: _304  and  _307
REMARK  127  A    between atoms: _307  and  _308
REMARK  128  A    between atoms: _311  and  _313
REMARK  129  A    between atoms: _313  and  _314
REMARK  130  A    between atoms: _313  and  _316
REMARK  131  A    between atoms: _316  and  _317
REMARK  132  A    between atoms: _320  and  _322
REMARK  133  A    between atoms: _322  and  _323
REMARK  134  A    between atoms: _322  and  _325
REMARK  135  A    between atoms: _325  and  _326
REMARK  136  A    between atoms: _329  and  _331
REMARK  137  A    between atoms: _331  and  _332
REMARK  138  A    between atoms: _331  and  _334
REMARK  139  A    between atoms: _334  and  _335
REMARK  140  A    between atoms: _338  and  _340
REMARK  141  A    between atoms: _340  and  _341
REMARK  142  A    between atoms: _343  and  _345
REMARK  143  A    between atoms: _345  and  _346
REMARK  144  A    between atoms: _349  and  _351
REMARK  145  A    between atoms: _351  and  _352
REMARK  146  A    between atoms: _351  and  _354
REMARK  147  A    between atoms: _354  and  _355
REMARK  148  A    between atoms: _358  and  _360
REMARK  149  A    between atoms: _360  and  _361
REMARK  150  A    between atoms: _360  and  _363
REMARK  151  A    between atoms: _363  and  _364
REMARK  152  A    between atoms: _367  and  _369
REMARK  153  A    between atoms: _369  and  _370
REMARK  154  A    between atoms: _369  and  _372
REMARK  155  A    between atoms: _372  and  _373
REMARK  156  A    between atoms: _376  and  _378
REMARK  157  A    between atoms: _378  and  _379
REMARK  158  A    between atoms: _378  and  _381
REMARK  159  A    between atoms: _381  and  _382
REMARK  160  A    between atoms: _385  and  _387
REMARK  161  A    between atoms: _387  and  _388
REMARK  162  A    between atoms: _387  and  _390
REMARK  163  A    between atoms: _390  and  _391
REMARK  164  A    between atoms: _394  and  _396
REMARK  165  A    between atoms: _396  and  _397
REMARK  166  A    between atoms: _396  and  _399
REMARK  167  A    between atoms: _399  and  _400
REMARK  168  A    between atoms: _400  and  _401
REMARK  169  A    between atoms: _401  and  _402
REMARK  170  A    between atoms: _402  and  _403
REMARK  171  A    between atoms: _407  and  _409
REMARK  172  A    between atoms: _409  and  _410
REMARK  173  A    between atoms: _409  and  _412
REMARK  174  A    between atoms: _412  and  _413
REMARK  175  A    between atoms: _413  and  _414
REMARK  176  A    between atoms: _416  and  _418
REMARK  177  A    between atoms: _418  and  _419
REMARK  178  A    between atoms: _418  and  _421
REMARK  179  A    between atoms: _424  and  _426
REMARK  180  A    between atoms: _426  and  _427
REMARK  181  A    between atoms: _429  and  _431
REMARK  182  A    between atoms: _431  and  _432
REMARK  183  A    between atoms: _434  and  _436
REMARK  184  A    between atoms: _436  and  _437
REMARK  185  A    between atoms: _436  and  _439
REMARK  186  A    between atoms: _439  and  _440
REMARK  187  A    between atoms: _443  and  _445
REMARK  188  A    between atoms: _445  and  _446
REMARK  189  A    between atoms: _448  and  _450
REMARK  190  A    between atoms: _450  and  _451
REMARK  191  A    between atoms: _453  and  _455
REMARK  192  A    between atoms: _455  and  _456
REMARK  193  A    between atoms: _455  and  _458
REMARK  194  A    between atoms: _458  and  _459
REMARK  195  A    between atoms: _465  and  _467
REMARK  196  A    between atoms: _467  and  _468
REMARK  197  A    between atoms: _467  and  _470
REMARK  198  A    between atoms: _470  and  _471
REMARK  199  A    between atoms: _474  and  _476
REMARK  200  A    between atoms: _476  and  _477
REMARK  201  A    between atoms: _476  and  _479
REMARK  202  A    between atoms: _479  and  _480
REMARK  203  A    between atoms: _483  and  _485
REMARK  204  A    between atoms: _485  and  _486
REMARK  205  A    between atoms: _485  and  _488
REMARK  206  A    between atoms: _488  and  _489
REMARK  207  A    between atoms: _493  and  _494
REMARK  208  A    between atoms: _499  and  _501
REMARK  209  A    between atoms: _501  and  _502
REMARK  210  A    between atoms: _501  and  _504
REMARK  211  A    between atoms: _504  and  _505
REMARK  212  A    between atoms: _508  and  _510
REMARK  213  A    between atoms: _510  and  _511
REMARK  214  A    between atoms: _510  and  _513
REMARK  215  A    between atoms: _513  and  _514
REMARK  216  A    between atoms: _519  and  _521
REMARK  217  A    between atoms: _521  and  _522
REMARK  218  A    between atoms: _521  and  _524
REMARK  219  A    between atoms: _524  and  _525
REMARK  220  A    between atoms: _528  and  _530
REMARK  221  A    between atoms: _530  and  _531
REMARK  222  A    between atoms: _530  and  _533
REMARK  223  A    between atoms: _533  and  _534
REMARK  224  A    between atoms: _537  and  _539
REMARK  225  A    between atoms: _539  and  _540
REMARK  226  A    between atoms: _542  and  _544
REMARK  227  A    between atoms: _544  and  _545
REMARK  228  A    between atoms: _544  and  _547
REMARK  229  A    between atoms: _547  and  _548
REMARK  230  A    between atoms: _548  and  _549
REMARK  231  A    between atoms: _549  and  _550
REMARK  232  A    between atoms: _559  and  _561
REMARK  233  A    between atoms: _561  and  _562
REMARK  234  A    between atoms: _561  and  _564
REMARK  235  A    between atoms: _564  and  _565
REMARK                            x       y       z     vdW  Elec       q    Type
REMARK                         _______ _______ _______ _____ _____    ______ ____
ROOT
ATOM      1  O   HOH     1      21.027  35.839  17.821  0.00  0.00    +0.000 OA
ENDROOT
TORSDOF 0
REMARK  Name = ../refined-set-2016/3s43/3s43_pocket.pdb
REMARK  235 active torsions:
REMARK  status: ('A' for Active; 'I' for Inactive)
REMARK    1  A    between atoms: _1  and  _3
REMARK    2  A    between atoms: _3  and  _4
REMARK    3  A    between atoms: _3  and  _6
REMARK    4  A    between atoms: _6  and  _7
REMARK    5  A    between atoms: _7  and  _8
REMARK    6  A    between atoms: _8  and  _9
REMARK    7  A    between atoms: _18  and  _20
REMARK    8  A    between atoms: _20  and  _21
REMARK    9  A    between atoms: _20  and  _23
REMARK   10  A    between atoms: _23  and  _24
REMARK   11  A    between atoms: _27  and  _29
REMARK   12  A    between atoms: _29  and  _30
REMARK   13  A    between atoms: _29  and  _32
REMARK   14  A    between atoms: _32  and  _33
REMARK   15  A    between atoms: _36  and  _38
REMARK   16  A    between atoms: _38  and  _39
REMARK   17  A    between atoms: _38  and  _41
REMARK   18  A    between atoms: _41  and  _42
REMARK   19  A    between atoms: _45  and  _47
REMARK   20  A    between atoms: _47  and  _48
REMARK   21  A    between atoms: _47  and  _50
REMARK   22  A    between atoms: _50  and  _51
REMARK   23  A    between atoms: _54  and  _56
REMARK   24  A    between atoms: _56  and  _57
REMARK   25  A    between atoms: _59  and  _61
REMARK   26  A    between atoms: _61  and  _62
REMARK   27  A    between atoms: _65  and  _67
REMARK   28  A    between atoms: _67  and  _68
REMARK   29  A    between atoms: _67  and  _70
REMARK   30  A    between atoms: _70  and  _71
REMARK   31  A    between atoms: _74  and  _76
REMARK   32  A    between atoms: _76  and  _77
REMARK   33  A    between atoms: _76  and  _79
REMARK   34  A    between atoms: _79  and  _80
REMARK   35  A    between atoms: _83  and  _85
REMARK   36  A    between atoms: _85  and  _86
REMARK   37  A    between atoms: _85  and  _88
REMARK   38  A    between atoms: _88  and  _89
REMARK   39  A    between atoms: _92  and  _94
REMARK   40  A    between atoms: _94  and  _95
REMARK   41  A    between atoms: _94  and  _97
REMARK   42  A    between atoms: _97  and  _98
REMARK   43  A    between atoms: _101  and  _103
REMARK   44  A    between atoms: _103  and  _104
REMARK   45  A    between atoms: _103  and  _106
REMARK   46  A    between atoms: _106  and  _107
REMARK   47  A    between atoms: _107  and  _108
REMARK   48  A    between atoms: _108  and  _109
REMARK   49  A    between atoms: _109  and  _110
REMARK   50  A    between atoms: _114  and  _116
REMARK   51  A    between atoms: _116  and  _117
REMARK   52  A    between atoms: _116  and  _119
REMARK   53  A    between atoms: _119  and  _120
REMARK   54  A    between atoms: _120  and  _121
REMARK   55  A    between atoms: _123  and  _125
REMARK   56  A    between atoms: _125  and  _126
REMARK   57  A    between atoms: _125  and  _128
REMARK   58  A    between atoms: _131  and  _133
REMARK   59  A    between atoms: _133  and  _134
REMARK   60  A    between atoms: _136  and  _138
REMARK   61  A    between atoms: _138  and  _139
REMARK   62  A    between atoms: _141  and  _143
REMARK   63  A    between atoms: _143  and  _144
REMARK   64  A    between atoms: _143  and  _146
REMARK   65  A    between atoms: _146  and  _147
REMARK   66  A    between atoms: _150  and  _152
REMARK   67  A    between atoms: _152  and  _153
REMARK   68  A    between atoms: _155  and  _157
REMARK   69  A    between atoms: _157  and  _158
REMARK   70  A    between atoms: _160  and  _162
REMARK   71  A    between atoms: _162  and  _163
REMARK   72  A    between atoms: _162  and  _165
REMARK   73  A    between atoms: _165  and  _166
REMARK   74  A    between atoms: _172  and  _174
REMARK   75  A    between atoms: _174  and  _175
REMARK   76  A    between atoms: _174  and  _177
REMARK   77  A    between atoms: _177  and  _178
REMARK   78  A    between atoms: _181  and  _183
REMARK   79  A    between atoms: _183  and  _184
REMARK   80  A    between atoms: _183  and  _186
REMARK   81  A    between atoms: _189  and  _191
REMARK   82  A    between atoms: _191  and  _192
REMARK   83  A    between atoms: _191  and  _194
REMARK   84  A    between atoms: _194  and  _195
REMARK   85  A    between atoms: _198  and  _200
REMARK   86  A    between atoms: _200  and  _201
REMARK   87  A    between atoms: _200  and  _203
REMARK   88  A    between atoms: _203  and  _204
REMARK   89  A    between atoms: _208  and  _209
REMARK   90  A    between atoms: _214  and  _216
REMARK   91  A    between atoms: _216  and  _217
REMARK   92  A    between atoms: _216  and  _219
REMARK   93  A    between atoms: _219  and  _220
REMARK   94  A    between atoms: _223  and  _225
REMARK   95  A    between atoms: _225  and  _226
REMARK   96  A    between atoms: _225  and  _228
REMARK   97  A    between atoms: _228  and  _229
REMARK   98  A    between atoms: _234  and  _236
REMARK   99  A    between atoms: _236  and  _237
REMARK  100  A    between atoms: _236  and  _239
REMARK  101  A    between atoms: _239  and  _240
REMARK  102  A    between atoms: _243  and  _245
REMARK  103  A    between atoms: _245  and  _246
REMARK  104  A    between atoms: _245  and  _248
REMARK  105  A    between atoms: _248  and  _249
REMARK  106  A    between atoms: _252  and  _254
REMARK  107  A    between atoms: _254  and  _255
REMARK  108  A    between atoms: _257  and  _259
REMARK  109  A    between atoms: _259  and  _260
REMARK  110  A    between atoms: _259  and  _262
REMARK  111  A    between atoms: _262  and  _263
REMARK  112  A    between atoms: _263  and  _264
REMARK  113  A    between atoms: _264  and  _265
REMARK  114  A    between atoms: _274  and  _276
REMARK  115  A    between atoms: _276  and  _277
REMARK  116  A    between atoms: _276  and  _279
REMARK  117  A    between atoms: _279  and  _280
REMARK  118  A    between atoms: _285  and  _287
REMARK  119  A    between atoms: _287  and  _288
REMARK  120  A    between atoms: _287  and  _290
REMARK  121  A    between atoms: _290  and  _291
REMARK  122  A    between atoms: _291  and  _292
REMARK  123  A    between atoms: _292  and  _293
REMARK  124  A    between atoms: _302  and  _304
REMARK  125  A    between atoms: _304  and  _305
REMARK  126  A    between atoms: _304  and  _307
REMARK  127  A    between atoms: _307  and  _308
REMARK  128  A    between atoms: _311  and  _313
REMARK  129  A    between atoms: _313  and  _314
REMARK  130  A    between atoms: _313  and  _316
REMARK  131  A    between atoms: _316  and  _317
REMARK  132  A    between atoms: _320  and  _322
REMARK  133  A    between atoms: _322  and  _323
REMARK  134  A    between atoms: _322  and  _325
REMARK  135  A    between atoms: _325  and  _326
REMARK  136  A    between atoms: _329  and  _331
REMARK  137  A    between atoms: _331  and  _332
REMARK  138  A    between atoms: _331  and  _334
REMARK  139  A    between atoms: _334  and  _335
REMARK  140  A    between atoms: _338  and  _340
REMARK  141  A    between atoms: _340  and  _341
REMARK  142  A    between atoms: _343  and  _345
REMARK  143  A    between atoms: _345  and  _346
REMARK  144  A    between atoms: _349  and  _351
REMARK  145  A    between atoms: _351  and  _352
REMARK  146  A    between atoms: _351  and  _354
REMARK  147  A    between atoms: _354  and  _355
REMARK  148  A    between atoms: _358  and  _360
REMARK  149  A    between atoms: _360  and  _361
REMARK  150  A    between atoms: _360  and  _363
REMARK  151  A    between atoms: _363  and  _364
REMARK  152  A    between atoms: _367  and  _369
REMARK  153  A    between atoms: _369  and  _370
REMARK  154  A    between atoms: _369  and  _372
REMARK  155  A    between atoms: _372  and  _373
REMARK  156  A    between atoms: _376  and  _378
REMARK  157  A    between atoms: _378  and  _379
REMARK  158  A    between atoms: _378  and  _381
REMARK  159  A    between atoms: _381  and  _382
REMARK  160  A    between atoms: _385  and  _387
REMARK  161  A    between atoms: _387  and  _388
REMARK  162  A    between atoms: _387  and  _390
REMARK  163  A    between atoms: _390  and  _391
REMARK  164  A    between atoms: _394  and  _396
REMARK  165  A    between atoms: _396  and  _397
REMARK  166  A    between atoms: _396  and  _399
REMARK  167  A    between atoms: _399  and  _400
REMARK  168  A    between atoms: _400  and  _401
REMARK  169  A    between atoms: _401  and  _402
REMARK  170  A    between atoms: _402  and  _403
REMARK  171  A    between atoms: _407  and  _409
REMARK  172  A    between atoms: _409  and  _410
REMARK  173  A    between atoms: _409  and  _412
REMARK  174  A    between atoms: _412  and  _413
REMARK  175  A    between atoms: _413  and  _414
REMARK  176  A    between atoms: _416  and  _418
REMARK  177  A    between atoms: _418  and  _419
REMARK  178  A    between atoms: _418  and  _421
REMARK  179  A    between atoms: _424  and  _426
REMARK  180  A    between atoms: _426  and  _427
REMARK  181  A    between atoms: _429  and  _431
REMARK  182  A    between atoms: _431  and  _432
REMARK  183  A    between atoms: _434  and  _436
REMARK  184  A    between atoms: _436  and  _437
REMARK  185  A    between atoms: _436  and  _439
REMARK  186  A    between atoms: _439  and  _440
REMARK  187  A    between atoms: _443  and  _445
REMARK  188  A    between atoms: _445  and  _446
REMARK  189  A    between atoms: _448  and  _450
REMARK  190  A    between atoms: _450  and  _451
REMARK  191  A    between atoms: _453  and  _455
REMARK  192  A    between atoms: _455  and  _456
REMARK  193  A    between atoms: _455  and  _458
REMARK  194  A    between atoms: _458  and  _459
REMARK  195  A    between atoms: _465  and  _467
REMARK  196  A    between atoms: _467  and  _468
REMARK  197  A    between atoms: _467  and  _470
REMARK  198  A    between atoms: _470  and  _471
REMARK  199  A    between atoms: _474  and  _476
REMARK  200  A    between atoms: _476  and  _477
REMARK  201  A    between atoms: _476  and  _479
REMARK  202  A    between atoms: _479  and  _480
REMARK  203  A    between atoms: _483  and  _485
REMARK  204  A    between atoms: _485  and  _486
REMARK  205  A    between atoms: _485  and  _488
REMARK  206  A    between atoms: _488  and  _489
REMARK  207  A    between atoms: _493  and  _494
REMARK  208  A    between atoms: _499  and  _501
REMARK  209  A    between atoms: _501  and  _502
REMARK  210  A    between atoms: _501  and  _504
REMARK  211  A    between atoms: _504  and  _505
REMARK  212  A    between atoms: _508  and  _510
REMARK  213  A    between atoms: _510  and  _511
REMARK  214  A    between atoms: _510  and  _513
REMARK  215  A    between atoms: _513  and  _514
REMARK  216  A    between atoms: _519  and  _521
REMARK  217  A    between atoms: _521  and  _522
REMARK  218  A    between atoms: _521  and  _524
REMARK  219  A    between atoms: _524  and  _525
REMARK  220  A    between atoms: _528  and  _530
REMARK  221  A    between atoms: _530  and  _531
REMARK  222  A    between atoms: _530  and  _533
REMARK  223  A    between atoms: _533  and  _534
REMARK  224  A    between atoms: _537  and  _539
REMARK  225  A    between atoms: _539  and  _540
REMARK  226  A    between atoms: _542  and  _544
REMARK  227  A    between atoms: _544  and  _545
REMARK  228  A    between atoms: _544  and  _547
REMARK  229  A    between atoms: _547  and  _548
REMARK  230  A    between atoms: _548  and  _549
REMARK  231  A    between atoms: _549  and  _550
REMARK  232  A    between atoms: _559  and  _561
REMARK  233  A    between atoms: _561  and  _562
REMARK  234  A    between atoms: _561  and  _564
REMARK  235  A    between atoms: _564  and  _565
REMARK                            x       y       z     vdW  Elec       q    Type
REMARK                         _______ _______ _______ _____ _____    ______ ____
ROOT
ATOM      1  O   HOH     1      20.795  33.783  10.712  0.00  0.00    +0.000 OA
ENDROOT
TORSDOF 0
REMARK  Name = ../refined-set-2016/3s43/3s43_pocket.pdb
REMARK  235 active torsions:
REMARK  status: ('A' for Active; 'I' for Inactive)
REMARK    1  A    between atoms: _1  and  _3
REMARK    2  A    between atoms: _3  and  _4
REMARK    3  A    between atoms: _3  and  _6
REMARK    4  A    between atoms: _6  and  _7
REMARK    5  A    between atoms: _7  and  _8
REMARK    6  A    between atoms: _8  and  _9
REMARK    7  A    between atoms: _18  and  _20
REMARK    8  A    between atoms: _20  and  _21
REMARK    9  A    between atoms: _20  and  _23
REMARK   10  A    between atoms: _23  and  _24
REMARK   11  A    between atoms: _27  and  _29
REMARK   12  A    between atoms: _29  and  _30
REMARK   13  A    between atoms: _29  and  _32
REMARK   14  A    between atoms: _32  and  _33
REMARK   15  A    between atoms: _36  and  _38
REMARK   16  A    between atoms: _38  and  _39
REMARK   17  A    between atoms: _38  and  _41
REMARK   18  A    between atoms: _41  and  _42
REMARK   19  A    between atoms: _45  and  _47
REMARK   20  A    between atoms: _47  and  _48
REMARK   21  A    between atoms: _47  and  _50
REMARK   22  A    between atoms: _50  and  _51
REMARK   23  A    between atoms: _54  and  _56
REMARK   24  A    between atoms: _56  and  _57
REMARK   25  A    between atoms: _59  and  _61
REMARK   26  A    between atoms: _61  and  _62
REMARK   27  A    between atoms: _65  and  _67
REMARK   28  A    between atoms: _67  and  _68
REMARK   29  A    between atoms: _67  and  _70
REMARK   30  A    between atoms: _70  and  _71
REMARK   31  A    between atoms: _74  and  _76
REMARK   32  A    between atoms: _76  and  _77
REMARK   33  A    between atoms: _76  and  _79
REMARK   34  A    between atoms: _79  and  _80
REMARK   35  A    between atoms: _83  and  _85
REMARK   36  A    between atoms: _85  and  _86
REMARK   37  A    between atoms: _85  and  _88
REMARK   38  A    between atoms: _88  and  _89
REMARK   39  A    between atoms: _92  and  _94
REMARK   40  A    between atoms: _94  and  _95
REMARK   41  A    between atoms: _94  and  _97
REMARK   42  A    between atoms: _97  and  _98
REMARK   43  A    between atoms: _101  and  _103
REMARK   44  A    between atoms: _103  and  _104
REMARK   45  A    between atoms: _103  and  _106
REMARK   46  A    between atoms: _106  and  _107
REMARK   47  A    between atoms: _107  and  _108
REMARK   48  A    between atoms: _108  and  _109
REMARK   49  A    between atoms: _109  and  _110
REMARK   50  A    between atoms: _114  and  _116
REMARK   51  A    between atoms: _116  and  _117
REMARK   52  A    between atoms: _116  and  _119
REMARK   53  A    between atoms: _119  and  _120
REMARK   54  A    between atoms: _120  and  _121
REMARK   55  A    between atoms: _123  and  _125
REMARK   56  A    between atoms: _125  and  _126
REMARK   57  A    between atoms: _125  and  _128
REMARK   58  A    between atoms: _131  and  _133
REMARK   59  A    between atoms: _133  and  _134
REMARK   60  A    between atoms: _136  and  _138
REMARK   61  A    between atoms: _138  and  _139
REMARK   62  A    between atoms: _141  and  _143
REMARK   63  A    between atoms: _143  and  _144
REMARK   64  A    between atoms: _143  and  _146
REMARK   65  A    between atoms: _146  and  _147
REMARK   66  A    between atoms: _150  and  _152
REMARK   67  A    between atoms: _152  and  _153
REMARK   68  A    between atoms: _155  and  _157
REMARK   69  A    between atoms: _157  and  _158
REMARK   70  A    between atoms: _160  and  _162
REMARK   71  A    between atoms: _162  and  _163
REMARK   72  A    between atoms: _162  and  _165
REMARK   73  A    between atoms: _165  and  _166
REMARK   74  A    between atoms: _172  and  _174
REMARK   75  A    between atoms: _174  and  _175
REMARK   76  A    between atoms: _174  and  _177
REMARK   77  A    between atoms: _177  and  _178
REMARK   78  A    between atoms: _181  and  _183
REMARK   79  A    between atoms: _183  and  _184
REMARK   80  A    between atoms: _183  and  _186
REMARK   81  A    between atoms: _189  and  _191
REMARK   82  A    between atoms: _191  and  _192
REMARK   83  A    between atoms: _191  and  _194
REMARK   84  A    between atoms: _194  and  _195
REMARK   85  A    between atoms: _198  and  _200
REMARK   86  A    between atoms: _200  and  _201
REMARK   87  A    between atoms: _200  and  _203
REMARK   88  A    between atoms: _203  and  _204
REMARK   89  A    between atoms: _208  and  _209
REMARK   90  A    between atoms: _214  and  _216
REMARK   91  A    between atoms: _216  and  _217
REMARK   92  A    between atoms: _216  and  _219
REMARK   93  A    between atoms: _219  and  _220
REMARK   94  A    between atoms: _223  and  _225
REMARK   95  A    between atoms: _225  and  _226
REMARK   96  A    between atoms: _225  and  _228
REMARK   97  A    between atoms: _228  and  _229
REMARK   98  A    between atoms: _234  and  _236
REMARK   99  A    between atoms: _236  and  _237
REMARK  100  A    between atoms: _236  and  _239
REMARK  101  A    between atoms: _239  and  _240
REMARK  102  A    between atoms: _243  and  _245
REMARK  103  A    between atoms: _245  and  _246
REMARK  104  A    between atoms: _245  and  _248
REMARK  105  A    between atoms: _248  and  _249
REMARK  106  A    between atoms: _252  and  _254
REMARK  107  A    between atoms: _254  and  _255
REMARK  108  A    between atoms: _257  and  _259
REMARK  109  A    between atoms: _259  and  _260
REMARK  110  A    between atoms: _259  and  _262
REMARK  111  A    between atoms: _262  and  _263
REMARK  112  A    between atoms: _263  and  _264
REMARK  113  A    between atoms: _264  and  _265
REMARK  114  A    between atoms: _274  and  _276
REMARK  115  A    between atoms: _276  and  _277
REMARK  116  A    between atoms: _276  and  _279
REMARK  117  A    between atoms: _279  and  _280
REMARK  118  A    between atoms: _285  and  _287
REMARK  119  A    between atoms: _287  and  _288
REMARK  120  A    between atoms: _287  and  _290
REMARK  121  A    between atoms: _290  and  _291
REMARK  122  A    between atoms: _291  and  _292
REMARK  123  A    between atoms: _292  and  _293
REMARK  124  A    between atoms: _302  and  _304
REMARK  125  A    between atoms: _304  and  _305
REMARK  126  A    between atoms: _304  and  _307
REMARK  127  A    between atoms: _307  and  _308
REMARK  128  A    between atoms: _311  and  _313
REMARK  129  A    between atoms: _313  and  _314
REMARK  130  A    between atoms: _313  and  _316
REMARK  131  A    between atoms: _316  and  _317
REMARK  132  A    between atoms: _320  and  _322
REMARK  133  A    between atoms: _322  and  _323
REMARK  134  A    between atoms: _322  and  _325
REMARK  135  A    between atoms: _325  and  _326
REMARK  136  A    between atoms: _329  and  _331
REMARK  137  A    between atoms: _331  and  _332
REMARK  138  A    between atoms: _331  and  _334
REMARK  139  A    between atoms: _334  and  _335
REMARK  140  A    between atoms: _338  and  _340
REMARK  141  A    between atoms: _340  and  _341
REMARK  142  A    between atoms: _343  and  _345
REMARK  143  A    between atoms: _345  and  _346
REMARK  144  A    between atoms: _349  and  _351
REMARK  145  A    between atoms: _351  and  _352
REMARK  146  A    between atoms: _351  and  _354
REMARK  147  A    between atoms: _354  and  _355
REMARK  148  A    between atoms: _358  and  _360
REMARK  149  A    between atoms: _360  and  _361
REMARK  150  A    between atoms: _360  and  _363
REMARK  151  A    between atoms: _363  and  _364
REMARK  152  A    between atoms: _367  and  _369
REMARK  153  A    between atoms: _369  and  _370
REMARK  154  A    between atoms: _369  and  _372
REMARK  155  A    between atoms: _372  and  _373
REMARK  156  A    between atoms: _376  and  _378
REMARK  157  A    between atoms: _378  and  _379
REMARK  158  A    between atoms: _378  and  _381
REMARK  159  A    between atoms: _381  and  _382
REMARK  160  A    between atoms: _385  and  _387
REMARK  161  A    between atoms: _387  and  _388
REMARK  162  A    between atoms: _387  and  _390
REMARK  163  A    between atoms: _390  and  _391
REMARK  164  A    between atoms: _394  and  _396
REMARK  165  A    between atoms: _396  and  _397
REMARK  166  A    between atoms: _396  and  _399
REMARK  167  A    between atoms: _399  and  _400
REMARK  168  A    between atoms: _400  and  _401
REMARK  169  A    between atoms: _401  and  _402
REMARK  170  A    between atoms: _402  and  _403
REMARK  171  A    between atoms: _407  and  _409
REMARK  172  A    between atoms: _409  and  _410
REMARK  173  A    between atoms: _409  and  _412
REMARK  174  A    between atoms: _412  and  _413
REMARK  175  A    between atoms: _413  and  _414
REMARK  176  A    between atoms: _416  and  _418
REMARK  177  A    between atoms: _418  and  _419
REMARK  178  A    between atoms: _418  and  _421
REMARK  179  A    between atoms: _424  and  _426
REMARK  180  A    between atoms: _426  and  _427
REMARK  181  A    between atoms: _429  and  _431
REMARK  182  A    between atoms: _431  and  _432
REMARK  183  A    between atoms: _434  and  _436
REMARK  184  A    between atoms: _436  and  _437
REMARK  185  A    between atoms: _436  and  _439
REMARK  186  A    between atoms: _439  and  _440
REMARK  187  A    between atoms: _443  and  _445
REMARK  188  A    between atoms: _445  and  _446
REMARK  189  A    between atoms: _448  and  _450
REMARK  190  A    between atoms: _450  and  _451
REMARK  191  A    between atoms: _453  and  _455
REMARK  192  A    between atoms: _455  and  _456
REMARK  193  A    between atoms: _455  and  _458
REMARK  194  A    between atoms: _458  and  _459
REMARK  195  A    between atoms: _465  and  _467
REMARK  196  A    between atoms: _467  and  _468
REMARK  197  A    between atoms: _467  and  _470
REMARK  198  A    between atoms: _470  and  _471
REMARK  199  A    between atoms: _474  and  _476
REMARK  200  A    between atoms: _476  and  _477
REMARK  201  A    between atoms: _476  and  _479
REMARK  202  A    between atoms: _479  and  _480
REMARK  203  A    between atoms: _483  and  _485
REMARK  204  A    between atoms: _485  and  _486
REMARK  205  A    between atoms: _485  and  _488
REMARK  206  A    between atoms: _488  and  _489
REMARK  207  A    between atoms: _493  and  _494
REMARK  208  A    between atoms: _499  and  _501
REMARK  209  A    between atoms: _501  and  _502
REMARK  210  A    between atoms: _501  and  _504
REMARK  211  A    between atoms: _504  and  _505
REMARK  212  A    between atoms: _508  and  _510
REMARK  213  A    between atoms: _510  and  _511
REMARK  214  A    between atoms: _510  and  _513
REMARK  215  A    between atoms: _513  and  _514
REMARK  216  A    between atoms: _519  and  _521
REMARK  217  A    between atoms: _521  and  _522
REMARK  218  A    between atoms: _521  and  _524
REMARK  219  A    between atoms: _524  and  _525
REMARK  220  A    between atoms: _528  and  _530
REMARK  221  A    between atoms: _530  and  _531
REMARK  222  A    between atoms: _530  and  _533
REMARK  223  A    between atoms: _533  and  _534
REMARK  224  A    between atoms: _537  and  _539
REMARK  225  A    between atoms: _539  and  _540
REMARK  226  A    between atoms: _542  and  _544
REMARK  227  A    between atoms: _544  and  _545
REMARK  228  A    between atoms: _544  and  _547
REMARK  229  A    between atoms: _547  and  _548
REMARK  230  A    between atoms: _548  and  _549
REMARK  231  A    between atoms: _549  and  _550
REMARK  232  A    between atoms: _559  and  _561
REMARK  233  A    between atoms: _561  and  _562
REMARK  234  A    between atoms: _561  and  _564
REMARK  235  A    between atoms: _564  and  _565
REMARK                            x       y       z     vdW  Elec       q    Type
REMARK                         _______ _______ _______ _____ _____    ______ ____
ROOT
ATOM      1  O   HOH     1      20.966  28.156  18.456  0.00  0.00    +0.000 OA
ENDROOT
TORSDOF 0
REMARK  Name = ../refined-set-2016/3s43/3s43_pocket.pdb
REMARK  235 active torsions:
REMARK  status: ('A' for Active; 'I' for Inactive)
REMARK    1  A    between atoms: _1  and  _3
REMARK    2  A    between atoms: _3  and  _4
REMARK    3  A    between atoms: _3  and  _6
REMARK    4  A    between atoms: _6  and  _7
REMARK    5  A    between atoms: _7  and  _8
REMARK    6  A    between atoms: _8  and  _9
REMARK    7  A    between atoms: _18  and  _20
REMARK    8  A    between atoms: _20  and  _21
REMARK    9  A    between atoms: _20  and  _23
REMARK   10  A    between atoms: _23  and  _24
REMARK   11  A    between atoms: _27  and  _29
REMARK   12  A    between atoms: _29  and  _30
REMARK   13  A    between atoms: _29  and  _32
REMARK   14  A    between atoms: _32  and  _33
REMARK   15  A    between atoms: _36  and  _38
REMARK   16  A    between atoms: _38  and  _39
REMARK   17  A    between atoms: _38  and  _41
REMARK   18  A    between atoms: _41  and  _42
REMARK   19  A    between atoms: _45  and  _47
REMARK   20  A    between atoms: _47  and  _48
REMARK   21  A    between atoms: _47  and  _50
REMARK   22  A    between atoms: _50  and  _51
REMARK   23  A    between atoms: _54  and  _56
REMARK   24  A    between atoms: _56  and  _57
REMARK   25  A    between atoms: _59  and  _61
REMARK   26  A    between atoms: _61  and  _62
REMARK   27  A    between atoms: _65  and  _67
REMARK   28  A    between atoms: _67  and  _68
REMARK   29  A    between atoms: _67  and  _70
REMARK   30  A    between atoms: _70  and  _71
REMARK   31  A    between atoms: _74  and  _76
REMARK   32  A    between atoms: _76  and  _77
REMARK   33  A    between atoms: _76  and  _79
REMARK   34  A    between atoms: _79  and  _80
REMARK   35  A    between atoms: _83  and  _85
REMARK   36  A    between atoms: _85  and  _86
REMARK   37  A    between atoms: _85  and  _88
REMARK   38  A    between atoms: _88  and  _89
REMARK   39  A    between atoms: _92  and  _94
REMARK   40  A    between atoms: _94  and  _95
REMARK   41  A    between atoms: _94  and  _97
REMARK   42  A    between atoms: _97  and  _98
REMARK   43  A    between atoms: _101  and  _103
REMARK   44  A    between atoms: _103  and  _104
REMARK   45  A    between atoms: _103  and  _106
REMARK   46  A    between atoms: _106  and  _107
REMARK   47  A    between atoms: _107  and  _108
REMARK   48  A    between atoms: _108  and  _109
REMARK   49  A    between atoms: _109  and  _110
REMARK   50  A    between atoms: _114  and  _116
REMARK   51  A    between atoms: _116  and  _117
REMARK   52  A    between atoms: _116  and  _119
REMARK   53  A    between atoms: _119  and  _120
REMARK   54  A    between atoms: _120  and  _121
REMARK   55  A    between atoms: _123  and  _125
REMARK   56  A    between atoms: _125  and  _126
REMARK   57  A    between atoms: _125  and  _128
REMARK   58  A    between atoms: _131  and  _133
REMARK   59  A    between atoms: _133  and  _134
REMARK   60  A    between atoms: _136  and  _138
REMARK   61  A    between atoms: _138  and  _139
REMARK   62  A    between atoms: _141  and  _143
REMARK   63  A    between atoms: _143  and  _144
REMARK   64  A    between atoms: _143  and  _146
REMARK   65  A    between atoms: _146  and  _147
REMARK   66  A    between atoms: _150  and  _152
REMARK   67  A    between atoms: _152  and  _153
REMARK   68  A    between atoms: _155  and  _157
REMARK   69  A    between atoms: _157  and  _158
REMARK   70  A    between atoms: _160  and  _162
REMARK   71  A    between atoms: _162  and  _163
REMARK   72  A    between atoms: _162  and  _165
REMARK   73  A    between atoms: _165  and  _166
REMARK   74  A    between atoms: _172  and  _174
REMARK   75  A    between atoms: _174  and  _175
REMARK   76  A    between atoms: _174  and  _177
REMARK   77  A    between atoms: _177  and  _178
REMARK   78  A    between atoms: _181  and  _183
REMARK   79  A    between atoms: _183  and  _184
REMARK   80  A    between atoms: _183  and  _186
REMARK   81  A    between atoms: _189  and  _191
REMARK   82  A    between atoms: _191  and  _192
REMARK   83  A    between atoms: _191  and  _194
REMARK   84  A    between atoms: _194  and  _195
REMARK   85  A    between atoms: _198  and  _200
REMARK   86  A    between atoms: _200  and  _201
REMARK   87  A    between atoms: _200  and  _203
REMARK   88  A    between atoms: _203  and  _204
REMARK   89  A    between atoms: _208  and  _209
REMARK   90  A    between atoms: _214  and  _216
REMARK   91  A    between atoms: _216  and  _217
REMARK   92  A    between atoms: _216  and  _219
REMARK   93  A    between atoms: _219  and  _220
REMARK   94  A    between atoms: _223  and  _225
REMARK   95  A    between atoms: _225  and  _226
REMARK   96  A    between atoms: _225  and  _228
REMARK   97  A    between atoms: _228  and  _229
REMARK   98  A    between atoms: _234  and  _236
REMARK   99  A    between atoms: _236  and  _237
REMARK  100  A    between atoms: _236  and  _239
REMARK  101  A    between atoms: _239  and  _240
REMARK  102  A    between atoms: _243  and  _245
REMARK  103  A    between atoms: _245  and  _246
REMARK  104  A    between atoms: _245  and  _248
REMARK  105  A    between atoms: _248  and  _249
REMARK  106  A    between atoms: _252  and  _254
REMARK  107  A    between atoms: _254  and  _255
REMARK  108  A    between atoms: _257  and  _259
REMARK  109  A    between atoms: _259  and  _260
REMARK  110  A    between atoms: _259  and  _262
REMARK  111  A    between atoms: _262  and  _263
REMARK  112  A    between atoms: _263  and  _264
REMARK  113  A    between atoms: _264  and  _265
REMARK  114  A    between atoms: _274  and  _276
REMARK  115  A    between atoms: _276  and  _277
REMARK  116  A    between atoms: _276  and  _279
REMARK  117  A    between atoms: _279  and  _280
REMARK  118  A    between atoms: _285  and  _287
REMARK  119  A    between atoms: _287  and  _288
REMARK  120  A    between atoms: _287  and  _290
REMARK  121  A    between atoms: _290  and  _291
REMARK  122  A    between atoms: _291  and  _292
REMARK  123  A    between atoms: _292  and  _293
REMARK  124  A    between atoms: _302  and  _304
REMARK  125  A    between atoms: _304  and  _305
REMARK  126  A    between atoms: _304  and  _307
REMARK  127  A    between atoms: _307  and  _308
REMARK  128  A    between atoms: _311  and  _313
REMARK  129  A    between atoms: _313  and  _314
REMARK  130  A    between atoms: _313  and  _316
REMARK  131  A    between atoms: _316  and  _317
REMARK  132  A    between atoms: _320  and  _322
REMARK  133  A    between atoms: _322  and  _323
REMARK  134  A    between atoms: _322  and  _325
REMARK  135  A    between atoms: _325  and  _326
REMARK  136  A    between atoms: _329  and  _331
REMARK  137  A    between atoms: _331  and  _332
REMARK  138  A    between atoms: _331  and  _334
REMARK  139  A    between atoms: _334  and  _335
REMARK  140  A    between atoms: _338  and  _340
REMARK  141  A    between atoms: _340  and  _341
REMARK  142  A    between atoms: _343  and  _345
REMARK  143  A    between atoms: _345  and  _346
REMARK  144  A    between atoms: _349  and  _351
REMARK  145  A    between atoms: _351  and  _352
REMARK  146  A    between atoms: _351  and  _354
REMARK  147  A    between atoms: _354  and  _355
REMARK  148  A    between atoms: _358  and  _360
REMARK  149  A    between atoms: _360  and  _361
REMARK  150  A    between atoms: _360  and  _363
REMARK  151  A    between atoms: _363  and  _364
REMARK  152  A    between atoms: _367  and  _369
REMARK  153  A    between atoms: _369  and  _370
REMARK  154  A    between atoms: _369  and  _372
REMARK  155  A    between atoms: _372  and  _373
REMARK  156  A    between atoms: _376  and  _378
REMARK  157  A    between atoms: _378  and  _379
REMARK  158  A    between atoms: _378  and  _381
REMARK  159  A    between atoms: _381  and  _382
REMARK  160  A    between atoms: _385  and  _387
REMARK  161  A    between atoms: _387  and  _388
REMARK  162  A    between atoms: _387  and  _390
REMARK  163  A    between atoms: _390  and  _391
REMARK  164  A    between atoms: _394  and  _396
REMARK  165  A    between atoms: _396  and  _397
REMARK  166  A    between atoms: _396  and  _399
REMARK  167  A    between atoms: _399  and  _400
REMARK  168  A    between atoms: _400  and  _401
REMARK  169  A    between atoms: _401  and  _402
REMARK  170  A    between atoms: _402  and  _403
REMARK  171  A    between atoms: _407  and  _409
REMARK  172  A    between atoms: _409  and  _410
REMARK  173  A    between atoms: _409  and  _412
REMARK  174  A    between atoms: _412  and  _413
REMARK  175  A    between atoms: _413  and  _414
REMARK  176  A    between atoms: _416  and  _418
REMARK  177  A    between atoms: _418  and  _419
REMARK  178  A    between atoms: _418  and  _421
REMARK  179  A    between atoms: _424  and  _426
REMARK  180  A    between atoms: _426  and  _427
REMARK  181  A    between atoms: _429  and  _431
REMARK  182  A    between atoms: _431  and  _432
REMARK  183  A    between atoms: _434  and  _436
REMARK  184  A    between atoms: _436  and  _437
REMARK  185  A    between atoms: _436  and  _439
REMARK  186  A    between atoms: _439  and  _440
REMARK  187  A    between atoms: _443  and  _445
REMARK  188  A    between atoms: _445  and  _446
REMARK  189  A    between atoms: _448  and  _450
REMARK  190  A    between atoms: _450  and  _451
REMARK  191  A    between atoms: _453  and  _455
REMARK  192  A    between atoms: _455  and  _456
REMARK  193  A    between atoms: _455  and  _458
REMARK  194  A    between atoms: _458  and  _459
REMARK  195  A    between atoms: _465  and  _467
REMARK  196  A    between atoms: _467  and  _468
REMARK  197  A    between atoms: _467  and  _470
REMARK  198  A    between atoms: _470  and  _471
REMARK  199  A    between atoms: _474  and  _476
REMARK  200  A    between atoms: _476  and  _477
REMARK  201  A    between atoms: _476  and  _479
REMARK  202  A    between atoms: _479  and  _480
REMARK  203  A    between atoms: _483  and  _485
REMARK  204  A    between atoms: _485  and  _486
REMARK  205  A    between atoms: _485  and  _488
REMARK  206  A    between atoms: _488  and  _489
REMARK  207  A    between atoms: _493  and  _494
REMARK  208  A    between atoms: _499  and  _501
REMARK  209  A    between atoms: _501  and  _502
REMARK  210  A    between atoms: _501  and  _504
REMARK  211  A    between atoms: _504  and  _505
REMARK  212  A    between atoms: _508  and  _510
REMARK  213  A    between atoms: _510  and  _511
REMARK  214  A    between atoms: _510  and  _513
REMARK  215  A    between atoms: _513  and  _514
REMARK  216  A    between atoms: _519  and  _521
REMARK  217  A    between atoms: _521  and  _522
REMARK  218  A    between atoms: _521  and  _524
REMARK  219  A    between atoms: _524  and  _525
REMARK  220  A    between atoms: _528  and  _530
REMARK  221  A    between atoms: _530  and  _531
REMARK  222  A    between atoms: _530  and  _533
REMARK  223  A    between atoms: _533  and  _534
REMARK  224  A    between atoms: _537  and  _539
REMARK  225  A    between atoms: _539  and  _540
REMARK  226  A    between atoms: _542  and  _544
REMARK  227  A    between atoms: _544  and  _545
REMARK  228  A    between atoms: _544  and  _547
REMARK  229  A    between atoms: _547  and  _548
REMARK  230  A    between atoms: _548  and  _549
REMARK  231  A    between atoms: _549  and  _550
REMARK  232  A    between atoms: _559  and  _561
REMARK  233  A    between atoms: _561  and  _562
REMARK  234  A    between atoms: _561  and  _564
REMARK  235  A    between atoms: _564  and  _565
REMARK                            x       y       z     vdW  Elec       q    Type
REMARK                         _______ _______ _______ _____ _____    ______ ____
ROOT
ATOM      1  O   HOH     1       5.590  21.405  11.099  0.00  0.00    +0.000 OA
ENDROOT
TORSDOF 0
REMARK  Name = ../refined-set-2016/3s43/3s43_pocket.pdb
REMARK  235 active torsions:
REMARK  status: ('A' for Active; 'I' for Inactive)
REMARK    1  A    between atoms: _1  and  _3
REMARK    2  A    between atoms: _3  and  _4
REMARK    3  A    between atoms: _3  and  _6
REMARK    4  A    between atoms: _6  and  _7
REMARK    5  A    between atoms: _7  and  _8
REMARK    6  A    between atoms: _8  and  _9
REMARK    7  A    between atoms: _18  and  _20
REMARK    8  A    between atoms: _20  and  _21
REMARK    9  A    between atoms: _20  and  _23
REMARK   10  A    between atoms: _23  and  _24
REMARK   11  A    between atoms: _27  and  _29
REMARK   12  A    between atoms: _29  and  _30
REMARK   13  A    between atoms: _29  and  _32
REMARK   14  A    between atoms: _32  and  _33
REMARK   15  A    between atoms: _36  and  _38
REMARK   16  A    between atoms: _38  and  _39
REMARK   17  A    between atoms: _38  and  _41
REMARK   18  A    between atoms: _41  and  _42
REMARK   19  A    between atoms: _45  and  _47
REMARK   20  A    between atoms: _47  and  _48
REMARK   21  A    between atoms: _47  and  _50
REMARK   22  A    between atoms: _50  and  _51
REMARK   23  A    between atoms: _54  and  _56
REMARK   24  A    between atoms: _56  and  _57
REMARK   25  A    between atoms: _59  and  _61
REMARK   26  A    between atoms: _61  and  _62
REMARK   27  A    between atoms: _65  and  _67
REMARK   28  A    between atoms: _67  and  _68
REMARK   29  A    between atoms: _67  and  _70
REMARK   30  A    between atoms: _70  and  _71
REMARK   31  A    between atoms: _74  and  _76
REMARK   32  A    between atoms: _76  and  _77
REMARK   33  A    between atoms: _76  and  _79
REMARK   34  A    between atoms: _79  and  _80
REMARK   35  A    between atoms: _83  and  _85
REMARK   36  A    between atoms: _85  and  _86
REMARK   37  A    between atoms: _85  and  _88
REMARK   38  A    between atoms: _88  and  _89
REMARK   39  A    between atoms: _92  and  _94
REMARK   40  A    between atoms: _94  and  _95
REMARK   41  A    between atoms: _94  and  _97
REMARK   42  A    between atoms: _97  and  _98
REMARK   43  A    between atoms: _101  and  _103
REMARK   44  A    between atoms: _103  and  _104
REMARK   45  A    between atoms: _103  and  _106
REMARK   46  A    between atoms: _106  and  _107
REMARK   47  A    between atoms: _107  and  _108
REMARK   48  A    between atoms: _108  and  _109
REMARK   49  A    between atoms: _109  and  _110
REMARK   50  A    between atoms: _114  and  _116
REMARK   51  A    between atoms: _116  and  _117
REMARK   52  A    between atoms: _116  and  _119
REMARK   53  A    between atoms: _119  and  _120
REMARK   54  A    between atoms: _120  and  _121
REMARK   55  A    between atoms: _123  and  _125
REMARK   56  A    between atoms: _125  and  _126
REMARK   57  A    between atoms: _125  and  _128
REMARK   58  A    between atoms: _131  and  _133
REMARK   59  A    between atoms: _133  and  _134
REMARK   60  A    between atoms: _136  and  _138
REMARK   61  A    between atoms: _138  and  _139
REMARK   62  A    between atoms: _141  and  _143
REMARK   63  A    between atoms: _143  and  _144
REMARK   64  A    between atoms: _143  and  _146
REMARK   65  A    between atoms: _146  and  _147
REMARK   66  A    between atoms: _150  and  _152
REMARK   67  A    between atoms: _152  and  _153
REMARK   68  A    between atoms: _155  and  _157
REMARK   69  A    between atoms: _157  and  _158
REMARK   70  A    between atoms: _160  and  _162
REMARK   71  A    between atoms: _162  and  _163
REMARK   72  A    between atoms: _162  and  _165
REMARK   73  A    between atoms: _165  and  _166
REMARK   74  A    between atoms: _172  and  _174
REMARK   75  A    between atoms: _174  and  _175
REMARK   76  A    between atoms: _174  and  _177
REMARK   77  A    between atoms: _177  and  _178
REMARK   78  A    between atoms: _181  and  _183
REMARK   79  A    between atoms: _183  and  _184
REMARK   80  A    between atoms: _183  and  _186
REMARK   81  A    between atoms: _189  and  _191
REMARK   82  A    between atoms: _191  and  _192
REMARK   83  A    between atoms: _191  and  _194
REMARK   84  A    between atoms: _194  and  _195
REMARK   85  A    between atoms: _198  and  _200
REMARK   86  A    between atoms: _200  and  _201
REMARK   87  A    between atoms: _200  and  _203
REMARK   88  A    between atoms: _203  and  _204
REMARK   89  A    between atoms: _208  and  _209
REMARK   90  A    between atoms: _214  and  _216
REMARK   91  A    between atoms: _216  and  _217
REMARK   92  A    between atoms: _216  and  _219
REMARK   93  A    between atoms: _219  and  _220
REMARK   94  A    between atoms: _223  and  _225
REMARK   95  A    between atoms: _225  and  _226
REMARK   96  A    between atoms: _225  and  _228
REMARK   97  A    between atoms: _228  and  _229
REMARK   98  A    between atoms: _234  and  _236
REMARK   99  A    between atoms: _236  and  _237
REMARK  100  A    between atoms: _236  and  _239
REMARK  101  A    between atoms: _239  and  _240
REMARK  102  A    between atoms: _243  and  _245
REMARK  103  A    between atoms: _245  and  _246
REMARK  104  A    between atoms: _245  and  _248
REMARK  105  A    between atoms: _248  and  _249
REMARK  106  A    between atoms: _252  and  _254
REMARK  107  A    between atoms: _254  and  _255
REMARK  108  A    between atoms: _257  and  _259
REMARK  109  A    between atoms: _259  and  _260
REMARK  110  A    between atoms: _259  and  _262
REMARK  111  A    between atoms: _262  and  _263
REMARK  112  A    between atoms: _263  and  _264
REMARK  113  A    between atoms: _264  and  _265
REMARK  114  A    between atoms: _274  and  _276
REMARK  115  A    between atoms: _276  and  _277
REMARK  116  A    between atoms: _276  and  _279
REMARK  117  A    between atoms: _279  and  _280
REMARK  118  A    between atoms: _285  and  _287
REMARK  119  A    between atoms: _287  and  _288
REMARK  120  A    between atoms: _287  and  _290
REMARK  121  A    between atoms: _290  and  _291
REMARK  122  A    between atoms: _291  and  _292
REMARK  123  A    between atoms: _292  and  _293
REMARK  124  A    between atoms: _302  and  _304
REMARK  125  A    between atoms: _304  and  _305
REMARK  126  A    between atoms: _304  and  _307
REMARK  127  A    between atoms: _307  and  _308
REMARK  128  A    between atoms: _311  and  _313
REMARK  129  A    between atoms: _313  and  _314
REMARK  130  A    between atoms: _313  and  _316
REMARK  131  A    between atoms: _316  and  _317
REMARK  132  A    between atoms: _320  and  _322
REMARK  133  A    between atoms: _322  and  _323
REMARK  134  A    between atoms: _322  and  _325
REMARK  135  A    between atoms: _325  and  _326
REMARK  136  A    between atoms: _329  and  _331
REMARK  137  A    between atoms: _331  and  _332
REMARK  138  A    between atoms: _331  and  _334
REMARK  139  A    between atoms: _334  and  _335
REMARK  140  A    between atoms: _338  and  _340
REMARK  141  A    between atoms: _340  and  _341
REMARK  142  A    between atoms: _343  and  _345
REMARK  143  A    between atoms: _345  and  _346
REMARK  144  A    between atoms: _349  and  _351
REMARK  145  A    between atoms: _351  and  _352
REMARK  146  A    between atoms: _351  and  _354
REMARK  147  A    between atoms: _354  and  _355
REMARK  148  A    between atoms: _358  and  _360
REMARK  149  A    between atoms: _360  and  _361
REMARK  150  A    between atoms: _360  and  _363
REMARK  151  A    between atoms: _363  and  _364
REMARK  152  A    between atoms: _367  and  _369
REMARK  153  A    between atoms: _369  and  _370
REMARK  154  A    between atoms: _369  and  _372
REMARK  155  A    between atoms: _372  and  _373
REMARK  156  A    between atoms: _376  and  _378
REMARK  157  A    between atoms: _378  and  _379
REMARK  158  A    between atoms: _378  and  _381
REMARK  159  A    between atoms: _381  and  _382
REMARK  160  A    between atoms: _385  and  _387
REMARK  161  A    between atoms: _387  and  _388
REMARK  162  A    between atoms: _387  and  _390
REMARK  163  A    between atoms: _390  and  _391
REMARK  164  A    between atoms: _394  and  _396
REMARK  165  A    between atoms: _396  and  _397
REMARK  166  A    between atoms: _396  and  _399
REMARK  167  A    between atoms: _399  and  _400
REMARK  168  A    between atoms: _400  and  _401
REMARK  169  A    between atoms: _401  and  _402
REMARK  170  A    between atoms: _402  and  _403
REMARK  171  A    between atoms: _407  and  _409
REMARK  172  A    between atoms: _409  and  _410
REMARK  173  A    between atoms: _409  and  _412
REMARK  174  A    between atoms: _412  and  _413
REMARK  175  A    between atoms: _413  and  _414
REMARK  176  A    between atoms: _416  and  _418
REMARK  177  A    between atoms: _418  and  _419
REMARK  178  A    between atoms: _418  and  _421
REMARK  179  A    between atoms: _424  and  _426
REMARK  180  A    between atoms: _426  and  _427
REMARK  181  A    between atoms: _429  and  _431
REMARK  182  A    between atoms: _431  and  _432
REMARK  183  A    between atoms: _434  and  _436
REMARK  184  A    between atoms: _436  and  _437
REMARK  185  A    between atoms: _436  and  _439
REMARK  186  A    between atoms: _439  and  _440
REMARK  187  A    between atoms: _443  and  _445
REMARK  188  A    between atoms: _445  and  _446
REMARK  189  A    between atoms: _448  and  _450
REMARK  190  A    between atoms: _450  and  _451
REMARK  191  A    between atoms: _453  and  _455
REMARK  192  A    between atoms: _455  and  _456
REMARK  193  A    between atoms: _455  and  _458
REMARK  194  A    between atoms: _458  and  _459
REMARK  195  A    between atoms: _465  and  _467
REMARK  196  A    between atoms: _467  and  _468
REMARK  197  A    between atoms: _467  and  _470
REMARK  198  A    between atoms: _470  and  _471
REMARK  199  A    between atoms: _474  and  _476
REMARK  200  A    between atoms: _476  and  _477
REMARK  201  A    between atoms: _476  and  _479
REMARK  202  A    between atoms: _479  and  _480
REMARK  203  A    between atoms: _483  and  _485
REMARK  204  A    between atoms: _485  and  _486
REMARK  205  A    between atoms: _485  and  _488
REMARK  206  A    between atoms: _488  and  _489
REMARK  207  A    between atoms: _493  and  _494
REMARK  208  A    between atoms: _499  and  _501
REMARK  209  A    between atoms: _501  and  _502
REMARK  210  A    between atoms: _501  and  _504
REMARK  211  A    between atoms: _504  and  _505
REMARK  212  A    between atoms: _508  and  _510
REMARK  213  A    between atoms: _510  and  _511
REMARK  214  A    between atoms: _510  and  _513
REMARK  215  A    between atoms: _513  and  _514
REMARK  216  A    between atoms: _519  and  _521
REMARK  217  A    between atoms: _521  and  _522
REMARK  218  A    between atoms: _521  and  _524
REMARK  219  A    between atoms: _524  and  _525
REMARK  220  A    between atoms: _528  and  _530
REMARK  221  A    between atoms: _530  and  _531
REMARK  222  A    between atoms: _530  and  _533
REMARK  223  A    between atoms: _533  and  _534
REMARK  224  A    between atoms: _537  and  _539
REMARK  225  A    between atoms: _539  and  _540
REMARK  226  A    between atoms: _542  and  _544
REMARK  227  A    between atoms: _544  and  _545
REMARK  228  A    between atoms: _544  and  _547
REMARK  229  A    between atoms: _547  and  _548
REMARK  230  A    between atoms: _548  and  _549
REMARK  231  A    between atoms: _549  and  _550
REMARK  232  A    between atoms: _559  and  _561
REMARK  233  A    between atoms: _561  and  _562
REMARK  234  A    between atoms: _561  and  _564
REMARK  235  A    between atoms: _564  and  _565
REMARK                            x       y       z     vdW  Elec       q    Type
REMARK                         _______ _______ _______ _____ _____    ______ ____
ROOT
ATOM      1  O   HOH     1      10.578  16.879  14.117  0.00  0.00    +0.000 OA
ENDROOT
TORSDOF 0
REMARK  Name = ../refined-set-2016/3s43/3s43_pocket.pdb
REMARK  235 active torsions:
REMARK  status: ('A' for Active; 'I' for Inactive)
REMARK    1  A    between atoms: _1  and  _3
REMARK    2  A    between atoms: _3  and  _4
REMARK    3  A    between atoms: _3  and  _6
REMARK    4  A    between atoms: _6  and  _7
REMARK    5  A    between atoms: _7  and  _8
REMARK    6  A    between atoms: _8  and  _9
REMARK    7  A    between atoms: _18  and  _20
REMARK    8  A    between atoms: _20  and  _21
REMARK    9  A    between atoms: _20  and  _23
REMARK   10  A    between atoms: _23  and  _24
REMARK   11  A    between atoms: _27  and  _29
REMARK   12  A    between atoms: _29  and  _30
REMARK   13  A    between atoms: _29  and  _32
REMARK   14  A    between atoms: _32  and  _33
REMARK   15  A    between atoms: _36  and  _38
REMARK   16  A    between atoms: _38  and  _39
REMARK   17  A    between atoms: _38  and  _41
REMARK   18  A    between atoms: _41  and  _42
REMARK   19  A    between atoms: _45  and  _47
REMARK   20  A    between atoms: _47  and  _48
REMARK   21  A    between atoms: _47  and  _50
REMARK   22  A    between atoms: _50  and  _51
REMARK   23  A    between atoms: _54  and  _56
REMARK   24  A    between atoms: _56  and  _57
REMARK   25  A    between atoms: _59  and  _61
REMARK   26  A    between atoms: _61  and  _62
REMARK   27  A    between atoms: _65  and  _67
REMARK   28  A    between atoms: _67  and  _68
REMARK   29  A    between atoms: _67  and  _70
REMARK   30  A    between atoms: _70  and  _71
REMARK   31  A    between atoms: _74  and  _76
REMARK   32  A    between atoms: _76  and  _77
REMARK   33  A    between atoms: _76  and  _79
REMARK   34  A    between atoms: _79  and  _80
REMARK   35  A    between atoms: _83  and  _85
REMARK   36  A    between atoms: _85  and  _86
REMARK   37  A    between atoms: _85  and  _88
REMARK   38  A    between atoms: _88  and  _89
REMARK   39  A    between atoms: _92  and  _94
REMARK   40  A    between atoms: _94  and  _95
REMARK   41  A    between atoms: _94  and  _97
REMARK   42  A    between atoms: _97  and  _98
REMARK   43  A    between atoms: _101  and  _103
REMARK   44  A    between atoms: _103  and  _104
REMARK   45  A    between atoms: _103  and  _106
REMARK   46  A    between atoms: _106  and  _107
REMARK   47  A    between atoms: _107  and  _108
REMARK   48  A    between atoms: _108  and  _109
REMARK   49  A    between atoms: _109  and  _110
REMARK   50  A    between atoms: _114  and  _116
REMARK   51  A    between atoms: _116  and  _117
REMARK   52  A    between atoms: _116  and  _119
REMARK   53  A    between atoms: _119  and  _120
REMARK   54  A    between atoms: _120  and  _121
REMARK   55  A    between atoms: _123  and  _125
REMARK   56  A    between atoms: _125  and  _126
REMARK   57  A    between atoms: _125  and  _128
REMARK   58  A    between atoms: _131  and  _133
REMARK   59  A    between atoms: _133  and  _134
REMARK   60  A    between atoms: _136  and  _138
REMARK   61  A    between atoms: _138  and  _139
REMARK   62  A    between atoms: _141  and  _143
REMARK   63  A    between atoms: _143  and  _144
REMARK   64  A    between atoms: _143  and  _146
REMARK   65  A    between atoms: _146  and  _147
REMARK   66  A    between atoms: _150  and  _152
REMARK   67  A    between atoms: _152  and  _153
REMARK   68  A    between atoms: _155  and  _157
REMARK   69  A    between atoms: _157  and  _158
REMARK   70  A    between atoms: _160  and  _162
REMARK   71  A    between atoms: _162  and  _163
REMARK   72  A    between atoms: _162  and  _165
REMARK   73  A    between atoms: _165  and  _166
REMARK   74  A    between atoms: _172  and  _174
REMARK   75  A    between atoms: _174  and  _175
REMARK   76  A    between atoms: _174  and  _177
REMARK   77  A    between atoms: _177  and  _178
REMARK   78  A    between atoms: _181  and  _183
REMARK   79  A    between atoms: _183  and  _184
REMARK   80  A    between atoms: _183  and  _186
REMARK   81  A    between atoms: _189  and  _191
REMARK   82  A    between atoms: _191  and  _192
REMARK   83  A    between atoms: _191  and  _194
REMARK   84  A    between atoms: _194  and  _195
REMARK   85  A    between atoms: _198  and  _200
REMARK   86  A    between atoms: _200  and  _201
REMARK   87  A    between atoms: _200  and  _203
REMARK   88  A    between atoms: _203  and  _204
REMARK   89  A    between atoms: _208  and  _209
REMARK   90  A    between atoms: _214  and  _216
REMARK   91  A    between atoms: _216  and  _217
REMARK   92  A    between atoms: _216  and  _219
REMARK   93  A    between atoms: _219  and  _220
REMARK   94  A    between atoms: _223  and  _225
REMARK   95  A    between atoms: _225  and  _226
REMARK   96  A    between atoms: _225  and  _228
REMARK   97  A    between atoms: _228  and  _229
REMARK   98  A    between atoms: _234  and  _236
REMARK   99  A    between atoms: _236  and  _237
REMARK  100  A    between atoms: _236  and  _239
REMARK  101  A    between atoms: _239  and  _240
REMARK  102  A    between atoms: _243  and  _245
REMARK  103  A    between atoms: _245  and  _246
REMARK  104  A    between atoms: _245  and  _248
REMARK  105  A    between atoms: _248  and  _249
REMARK  106  A    between atoms: _252  and  _254
REMARK  107  A    between atoms: _254  and  _255
REMARK  108  A    between atoms: _257  and  _259
REMARK  109  A    between atoms: _259  and  _260
REMARK  110  A    between atoms: _259  and  _262
REMARK  111  A    between atoms: _262  and  _263
REMARK  112  A    between atoms: _263  and  _264
REMARK  113  A    between atoms: _264  and  _265
REMARK  114  A    between atoms: _274  and  _276
REMARK  115  A    between atoms: _276  and  _277
REMARK  116  A    between atoms: _276  and  _279
REMARK  117  A    between atoms: _279  and  _280
REMARK  118  A    between atoms: _285  and  _287
REMARK  119  A    between atoms: _287  and  _288
REMARK  120  A    between atoms: _287  and  _290
REMARK  121  A    between atoms: _290  and  _291
REMARK  122  A    between atoms: _291  and  _292
REMARK  123  A    between atoms: _292  and  _293
REMARK  124  A    between atoms: _302  and  _304
REMARK  125  A    between atoms: _304  and  _305
REMARK  126  A    between atoms: _304  and  _307
REMARK  127  A    between atoms: _307  and  _308
REMARK  128  A    between atoms: _311  and  _313
REMARK  129  A    between atoms: _313  and  _314
REMARK  130  A    between atoms: _313  and  _316
REMARK  131  A    between atoms: _316  and  _317
REMARK  132  A    between atoms: _320  and  _322
REMARK  133  A    between atoms: _322  and  _323
REMARK  134  A    between atoms: _322  and  _325
REMARK  135  A    between atoms: _325  and  _326
REMARK  136  A    between atoms: _329  and  _331
REMARK  137  A    between atoms: _331  and  _332
REMARK  138  A    between atoms: _331  and  _334
REMARK  139  A    between atoms: _334  and  _335
REMARK  140  A    between atoms: _338  and  _340
REMARK  141  A    between atoms: _340  and  _341
REMARK  142  A    between atoms: _343  and  _345
REMARK  143  A    between atoms: _345  and  _346
REMARK  144  A    between atoms: _349  and  _351
REMARK  145  A    between atoms: _351  and  _352
REMARK  146  A    between atoms: _351  and  _354
REMARK  147  A    between atoms: _354  and  _355
REMARK  148  A    between atoms: _358  and  _360
REMARK  149  A    between atoms: _360  and  _361
REMARK  150  A    between atoms: _360  and  _363
REMARK  151  A    between atoms: _363  and  _364
REMARK  152  A    between atoms: _367  and  _369
REMARK  153  A    between atoms: _369  and  _370
REMARK  154  A    between atoms: _369  and  _372
REMARK  155  A    between atoms: _372  and  _373
REMARK  156  A    between atoms: _376  and  _378
REMARK  157  A    between atoms: _378  and  _379
REMARK  158  A    between atoms: _378  and  _381
REMARK  159  A    between atoms: _381  and  _382
REMARK  160  A    between atoms: _385  and  _387
REMARK  161  A    between atoms: _387  and  _388
REMARK  162  A    between atoms: _387  and  _390
REMARK  163  A    between atoms: _390  and  _391
REMARK  164  A    between atoms: _394  and  _396
REMARK  165  A    between atoms: _396  and  _397
REMARK  166  A    between atoms: _396  and  _399
REMARK  167  A    between atoms: _399  and  _400
REMARK  168  A    between atoms: _400  and  _401
REMARK  169  A    between atoms: _401  and  _402
REMARK  170  A    between atoms: _402  and  _403
REMARK  171  A    between atoms: _407  and  _409
REMARK  172  A    between atoms: _409  and  _410
REMARK  173  A    between atoms: _409  and  _412
REMARK  174  A    between atoms: _412  and  _413
REMARK  175  A    between atoms: _413  and  _414
REMARK  176  A    between atoms: _416  and  _418
REMARK  177  A    between atoms: _418  and  _419
REMARK  178  A    between atoms: _418  and  _421
REMARK  179  A    between atoms: _424  and  _426
REMARK  180  A    between atoms: _426  and  _427
REMARK  181  A    between atoms: _429  and  _431
REMARK  182  A    between atoms: _431  and  _432
REMARK  183  A    between atoms: _434  and  _436
REMARK  184  A    between atoms: _436  and  _437
REMARK  185  A    between atoms: _436  and  _439
REMARK  186  A    between atoms: _439  and  _440
REMARK  187  A    between atoms: _443  and  _445
REMARK  188  A    between atoms: _445  and  _446
REMARK  189  A    between atoms: _448  and  _450
REMARK  190  A    between atoms: _450  and  _451
REMARK  191  A    between atoms: _453  and  _455
REMARK  192  A    between atoms: _455  and  _456
REMARK  193  A    between atoms: _455  and  _458
REMARK  194  A    between atoms: _458  and  _459
REMARK  195  A    between atoms: _465  and  _467
REMARK  196  A    between atoms: _467  and  _468
REMARK  197  A    between atoms: _467  and  _470
REMARK  198  A    between atoms: _470  and  _471
REMARK  199  A    between atoms: _474  and  _476
REMARK  200  A    between atoms: _476  and  _477
REMARK  201  A    between atoms: _476  and  _479
REMARK  202  A    between atoms: _479  and  _480
REMARK  203  A    between atoms: _483  and  _485
REMARK  204  A    between atoms: _485  and  _486
REMARK  205  A    between atoms: _485  and  _488
REMARK  206  A    between atoms: _488  and  _489
REMARK  207  A    between atoms: _493  and  _494
REMARK  208  A    between atoms: _499  and  _501
REMARK  209  A    between atoms: _501  and  _502
REMARK  210  A    between atoms: _501  and  _504
REMARK  211  A    between atoms: _504  and  _505
REMARK  212  A    between atoms: _508  and  _510
REMARK  213  A    between atoms: _510  and  _511
REMARK  214  A    between atoms: _510  and  _513
REMARK  215  A    between atoms: _513  and  _514
REMARK  216  A    between atoms: _519  and  _521
REMARK  217  A    between atoms: _521  and  _522
REMARK  218  A    between atoms: _521  and  _524
REMARK  219  A    between atoms: _524  and  _525
REMARK  220  A    between atoms: _528  and  _530
REMARK  221  A    between atoms: _530  and  _531
REMARK  222  A    between atoms: _530  and  _533
REMARK  223  A    between atoms: _533  and  _534
REMARK  224  A    between atoms: _537  and  _539
REMARK  225  A    between atoms: _539  and  _540
REMARK  226  A    between atoms: _542  and  _544
REMARK  227  A    between atoms: _544  and  _545
REMARK  228  A    between atoms: _544  and  _547
REMARK  229  A    between atoms: _547  and  _548
REMARK  230  A    between atoms: _548  and  _549
REMARK  231  A    between atoms: _549  and  _550
REMARK  232  A    between atoms: _559  and  _561
REMARK  233  A    between atoms: _561  and  _562
REMARK  234  A    between atoms: _561  and  _564
REMARK  235  A    between atoms: _564  and  _565
REMARK                            x       y       z     vdW  Elec       q    Type
REMARK                         _______ _______ _______ _____ _____    ______ ____
ROOT
ATOM      1  O   HOH     1      22.836  23.962  19.315  0.00  0.00    +0.000 OA
ENDROOT
TORSDOF 0
REMARK  Name = ../refined-set-2016/3s43/3s43_pocket.pdb
REMARK  235 active torsions:
REMARK  status: ('A' for Active; 'I' for Inactive)
REMARK    1  A    between atoms: _1  and  _3
REMARK    2  A    between atoms: _3  and  _4
REMARK    3  A    between atoms: _3  and  _6
REMARK    4  A    between atoms: _6  and  _7
REMARK    5  A    between atoms: _7  and  _8
REMARK    6  A    between atoms: _8  and  _9
REMARK    7  A    between atoms: _18  and  _20
REMARK    8  A    between atoms: _20  and  _21
REMARK    9  A    between atoms: _20  and  _23
REMARK   10  A    between atoms: _23  and  _24
REMARK   11  A    between atoms: _27  and  _29
REMARK   12  A    between atoms: _29  and  _30
REMARK   13  A    between atoms: _29  and  _32
REMARK   14  A    between atoms: _32  and  _33
REMARK   15  A    between atoms: _36  and  _38
REMARK   16  A    between atoms: _38  and  _39
REMARK   17  A    between atoms: _38  and  _41
REMARK   18  A    between atoms: _41  and  _42
REMARK   19  A    between atoms: _45  and  _47
REMARK   20  A    between atoms: _47  and  _48
REMARK   21  A    between atoms: _47  and  _50
REMARK   22  A    between atoms: _50  and  _51
REMARK   23  A    between atoms: _54  and  _56
REMARK   24  A    between atoms: _56  and  _57
REMARK   25  A    between atoms: _59  and  _61
REMARK   26  A    between atoms: _61  and  _62
REMARK   27  A    between atoms: _65  and  _67
REMARK   28  A    between atoms: _67  and  _68
REMARK   29  A    between atoms: _67  and  _70
REMARK   30  A    between atoms: _70  and  _71
REMARK   31  A    between atoms: _74  and  _76
REMARK   32  A    between atoms: _76  and  _77
REMARK   33  A    between atoms: _76  and  _79
REMARK   34  A    between atoms: _79  and  _80
REMARK   35  A    between atoms: _83  and  _85
REMARK   36  A    between atoms: _85  and  _86
REMARK   37  A    between atoms: _85  and  _88
REMARK   38  A    between atoms: _88  and  _89
REMARK   39  A    between atoms: _92  and  _94
REMARK   40  A    between atoms: _94  and  _95
REMARK   41  A    between atoms: _94  and  _97
REMARK   42  A    between atoms: _97  and  _98
REMARK   43  A    between atoms: _101  and  _103
REMARK   44  A    between atoms: _103  and  _104
REMARK   45  A    between atoms: _103  and  _106
REMARK   46  A    between atoms: _106  and  _107
REMARK   47  A    between atoms: _107  and  _108
REMARK   48  A    between atoms: _108  and  _109
REMARK   49  A    between atoms: _109  and  _110
REMARK   50  A    between atoms: _114  and  _116
REMARK   51  A    between atoms: _116  and  _117
REMARK   52  A    between atoms: _116  and  _119
REMARK   53  A    between atoms: _119  and  _120
REMARK   54  A    between atoms: _120  and  _121
REMARK   55  A    between atoms: _123  and  _125
REMARK   56  A    between atoms: _125  and  _126
REMARK   57  A    between atoms: _125  and  _128
REMARK   58  A    between atoms: _131  and  _133
REMARK   59  A    between atoms: _133  and  _134
REMARK   60  A    between atoms: _136  and  _138
REMARK   61  A    between atoms: _138  and  _139
REMARK   62  A    between atoms: _141  and  _143
REMARK   63  A    between atoms: _143  and  _144
REMARK   64  A    between atoms: _143  and  _146
REMARK   65  A    between atoms: _146  and  _147
REMARK   66  A    between atoms: _150  and  _152
REMARK   67  A    between atoms: _152  and  _153
REMARK   68  A    between atoms: _155  and  _157
REMARK   69  A    between atoms: _157  and  _158
REMARK   70  A    between atoms: _160  and  _162
REMARK   71  A    between atoms: _162  and  _163
REMARK   72  A    between atoms: _162  and  _165
REMARK   73  A    between atoms: _165  and  _166
REMARK   74  A    between atoms: _172  and  _174
REMARK   75  A    between atoms: _174  and  _175
REMARK   76  A    between atoms: _174  and  _177
REMARK   77  A    between atoms: _177  and  _178
REMARK   78  A    between atoms: _181  and  _183
REMARK   79  A    between atoms: _183  and  _184
REMARK   80  A    between atoms: _183  and  _186
REMARK   81  A    between atoms: _189  and  _191
REMARK   82  A    between atoms: _191  and  _192
REMARK   83  A    between atoms: _191  and  _194
REMARK   84  A    between atoms: _194  and  _195
REMARK   85  A    between atoms: _198  and  _200
REMARK   86  A    between atoms: _200  and  _201
REMARK   87  A    between atoms: _200  and  _203
REMARK   88  A    between atoms: _203  and  _204
REMARK   89  A    between atoms: _208  and  _209
REMARK   90  A    between atoms: _214  and  _216
REMARK   91  A    between atoms: _216  and  _217
REMARK   92  A    between atoms: _216  and  _219
REMARK   93  A    between atoms: _219  and  _220
REMARK   94  A    between atoms: _223  and  _225
REMARK   95  A    between atoms: _225  and  _226
REMARK   96  A    between atoms: _225  and  _228
REMARK   97  A    between atoms: _228  and  _229
REMARK   98  A    between atoms: _234  and  _236
REMARK   99  A    between atoms: _236  and  _237
REMARK  100  A    between atoms: _236  and  _239
REMARK  101  A    between atoms: _239  and  _240
REMARK  102  A    between atoms: _243  and  _245
REMARK  103  A    between atoms: _245  and  _246
REMARK  104  A    between atoms: _245  and  _248
REMARK  105  A    between atoms: _248  and  _249
REMARK  106  A    between atoms: _252  and  _254
REMARK  107  A    between atoms: _254  and  _255
REMARK  108  A    between atoms: _257  and  _259
REMARK  109  A    between atoms: _259  and  _260
REMARK  110  A    between atoms: _259  and  _262
REMARK  111  A    between atoms: _262  and  _263
REMARK  112  A    between atoms: _263  and  _264
REMARK  113  A    between atoms: _264  and  _265
REMARK  114  A    between atoms: _274  and  _276
REMARK  115  A    between atoms: _276  and  _277
REMARK  116  A    between atoms: _276  and  _279
REMARK  117  A    between atoms: _279  and  _280
REMARK  118  A    between atoms: _285  and  _287
REMARK  119  A    between atoms: _287  and  _288
REMARK  120  A    between atoms: _287  and  _290
REMARK  121  A    between atoms: _290  and  _291
REMARK  122  A    between atoms: _291  and  _292
REMARK  123  A    between atoms: _292  and  _293
REMARK  124  A    between atoms: _302  and  _304
REMARK  125  A    between atoms: _304  and  _305
REMARK  126  A    between atoms: _304  and  _307
REMARK  127  A    between atoms: _307  and  _308
REMARK  128  A    between atoms: _311  and  _313
REMARK  129  A    between atoms: _313  and  _314
REMARK  130  A    between atoms: _313  and  _316
REMARK  131  A    between atoms: _316  and  _317
REMARK  132  A    between atoms: _320  and  _322
REMARK  133  A    between atoms: _322  and  _323
REMARK  134  A    between atoms: _322  and  _325
REMARK  135  A    between atoms: _325  and  _326
REMARK  136  A    between atoms: _329  and  _331
REMARK  137  A    between atoms: _331  and  _332
REMARK  138  A    between atoms: _331  and  _334
REMARK  139  A    between atoms: _334  and  _335
REMARK  140  A    between atoms: _338  and  _340
REMARK  141  A    between atoms: _340  and  _341
REMARK  142  A    between atoms: _343  and  _345
REMARK  143  A    between atoms: _345  and  _346
REMARK  144  A    between atoms: _349  and  _351
REMARK  145  A    between atoms: _351  and  _352
REMARK  146  A    between atoms: _351  and  _354
REMARK  147  A    between atoms: _354  and  _355
REMARK  148  A    between atoms: _358  and  _360
REMARK  149  A    between atoms: _360  and  _361
REMARK  150  A    between atoms: _360  and  _363
REMARK  151  A    between atoms: _363  and  _364
REMARK  152  A    between atoms: _367  and  _369
REMARK  153  A    between atoms: _369  and  _370
REMARK  154  A    between atoms: _369  and  _372
REMARK  155  A    between atoms: _372  and  _373
REMARK  156  A    between atoms: _376  and  _378
REMARK  157  A    between atoms: _378  and  _379
REMARK  158  A    between atoms: _378  and  _381
REMARK  159  A    between atoms: _381  and  _382
REMARK  160  A    between atoms: _385  and  _387
REMARK  161  A    between atoms: _387  and  _388
REMARK  162  A    between atoms: _387  and  _390
REMARK  163  A    between atoms: _390  and  _391
REMARK  164  A    between atoms: _394  and  _396
REMARK  165  A    between atoms: _396  and  _397
REMARK  166  A    between atoms: _396  and  _399
REMARK  167  A    between atoms: _399  and  _400
REMARK  168  A    between atoms: _400  and  _401
REMARK  169  A    between atoms: _401  and  _402
REMARK  170  A    between atoms: _402  and  _403
REMARK  171  A    between atoms: _407  and  _409
REMARK  172  A    between atoms: _409  and  _410
REMARK  173  A    between atoms: _409  and  _412
REMARK  174  A    between atoms: _412  and  _413
REMARK  175  A    between atoms: _413  and  _414
REMARK  176  A    between atoms: _416  and  _418
REMARK  177  A    between atoms: _418  and  _419
REMARK  178  A    between atoms: _418  and  _421
REMARK  179  A    between atoms: _424  and  _426
REMARK  180  A    between atoms: _426  and  _427
REMARK  181  A    between atoms: _429  and  _431
REMARK  182  A    between atoms: _431  and  _432
REMARK  183  A    between atoms: _434  and  _436
REMARK  184  A    between atoms: _436  and  _437
REMARK  185  A    between atoms: _436  and  _439
REMARK  186  A    between atoms: _439  and  _440
REMARK  187  A    between atoms: _443  and  _445
REMARK  188  A    between atoms: _445  and  _446
REMARK  189  A    between atoms: _448  and  _450
REMARK  190  A    between atoms: _450  and  _451
REMARK  191  A    between atoms: _453  and  _455
REMARK  192  A    between atoms: _455  and  _456
REMARK  193  A    between atoms: _455  and  _458
REMARK  194  A    between atoms: _458  and  _459
REMARK  195  A    between atoms: _465  and  _467
REMARK  196  A    between atoms: _467  and  _468
REMARK  197  A    between atoms: _467  and  _470
REMARK  198  A    between atoms: _470  and  _471
REMARK  199  A    between atoms: _474  and  _476
REMARK  200  A    between atoms: _476  and  _477
REMARK  201  A    between atoms: _476  and  _479
REMARK  202  A    between atoms: _479  and  _480
REMARK  203  A    between atoms: _483  and  _485
REMARK  204  A    between atoms: _485  and  _486
REMARK  205  A    between atoms: _485  and  _488
REMARK  206  A    between atoms: _488  and  _489
REMARK  207  A    between atoms: _493  and  _494
REMARK  208  A    between atoms: _499  and  _501
REMARK  209  A    between atoms: _501  and  _502
REMARK  210  A    between atoms: _501  and  _504
REMARK  211  A    between atoms: _504  and  _505
REMARK  212  A    between atoms: _508  and  _510
REMARK  213  A    between atoms: _510  and  _511
REMARK  214  A    between atoms: _510  and  _513
REMARK  215  A    between atoms: _513  and  _514
REMARK  216  A    between atoms: _519  and  _521
REMARK  217  A    between atoms: _521  and  _522
REMARK  218  A    between atoms: _521  and  _524
REMARK  219  A    between atoms: _524  and  _525
REMARK  220  A    between atoms: _528  and  _530
REMARK  221  A    between atoms: _530  and  _531
REMARK  222  A    between atoms: _530  and  _533
REMARK  223  A    between atoms: _533  and  _534
REMARK  224  A    between atoms: _537  and  _539
REMARK  225  A    between atoms: _539  and  _540
REMARK  226  A    between atoms: _542  and  _544
REMARK  227  A    between atoms: _544  and  _545
REMARK  228  A    between atoms: _544  and  _547
REMARK  229  A    between atoms: _547  and  _548
REMARK  230  A    between atoms: _548  and  _549
REMARK  231  A    between atoms: _549  and  _550
REMARK  232  A    between atoms: _559  and  _561
REMARK  233  A    between atoms: _561  and  _562
REMARK  234  A    between atoms: _561  and  _564
REMARK  235  A    between atoms: _564  and  _565
REMARK                            x       y       z     vdW  Elec       q    Type
REMARK                         _______ _______ _______ _____ _____    ______ ____
ROOT
ATOM      1  O   UNL     1      23.924  30.271  14.459  0.00  0.00    +0.000 OA
ATOM      2  O   UNL     1      24.491  29.331  14.710  0.00  0.00    +0.000 OA
ENDROOT
TORSDOF 0
REMARK  Name = ../refined-set-2016/3s43/3s43_pocket.pdb
REMARK  235 active torsions:
REMARK  status: ('A' for Active; 'I' for Inactive)
REMARK    1  A    between atoms: _1  and  _3
REMARK    2  A    between atoms: _3  and  _4
REMARK    3  A    between atoms: _3  and  _6
REMARK    4  A    between atoms: _6  and  _7
REMARK    5  A    between atoms: _7  and  _8
REMARK    6  A    between atoms: _8  and  _9
REMARK    7  A    between atoms: _18  and  _20
REMARK    8  A    between atoms: _20  and  _21
REMARK    9  A    between atoms: _20  and  _23
REMARK   10  A    between atoms: _23  and  _24
REMARK   11  A    between atoms: _27  and  _29
REMARK   12  A    between atoms: _29  and  _30
REMARK   13  A    between atoms: _29  and  _32
REMARK   14  A    between atoms: _32  and  _33
REMARK   15  A    between atoms: _36  and  _38
REMARK   16  A    between atoms: _38  and  _39
REMARK   17  A    between atoms: _38  and  _41
REMARK   18  A    between atoms: _41  and  _42
REMARK   19  A    between atoms: _45  and  _47
REMARK   20  A    between atoms: _47  and  _48
REMARK   21  A    between atoms: _47  and  _50
REMARK   22  A    between atoms: _50  and  _51
REMARK   23  A    between atoms: _54  and  _56
REMARK   24  A    between atoms: _56  and  _57
REMARK   25  A    between atoms: _59  and  _61
REMARK   26  A    between atoms: _61  and  _62
REMARK   27  A    between atoms: _65  and  _67
REMARK   28  A    between atoms: _67  and  _68
REMARK   29  A    between atoms: _67  and  _70
REMARK   30  A    between atoms: _70  and  _71
REMARK   31  A    between atoms: _74  and  _76
REMARK   32  A    between atoms: _76  and  _77
REMARK   33  A    between atoms: _76  and  _79
REMARK   34  A    between atoms: _79  and  _80
REMARK   35  A    between atoms: _83  and  _85
REMARK   36  A    between atoms: _85  and  _86
REMARK   37  A    between atoms: _85  and  _88
REMARK   38  A    between atoms: _88  and  _89
REMARK   39  A    between atoms: _92  and  _94
REMARK   40  A    between atoms: _94  and  _95
REMARK   41  A    between atoms: _94  and  _97
REMARK   42  A    between atoms: _97  and  _98
REMARK   43  A    between atoms: _101  and  _103
REMARK   44  A    between atoms: _103  and  _104
REMARK   45  A    between atoms: _103  and  _106
REMARK   46  A    between atoms: _106  and  _107
REMARK   47  A    between atoms: _107  and  _108
REMARK   48  A    between atoms: _108  and  _109
REMARK   49  A    between atoms: _109  and  _110
REMARK   50  A    between atoms: _114  and  _116
REMARK   51  A    between atoms: _116  and  _117
REMARK   52  A    between atoms: _116  and  _119
REMARK   53  A    between atoms: _119  and  _120
REMARK   54  A    between atoms: _120  and  _121
REMARK   55  A    between atoms: _123  and  _125
REMARK   56  A    between atoms: _125  and  _126
REMARK   57  A    between atoms: _125  and  _128
REMARK   58  A    between atoms: _131  and  _133
REMARK   59  A    between atoms: _133  and  _134
REMARK   60  A    between atoms: _136  and  _138
REMARK   61  A    between atoms: _138  and  _139
REMARK   62  A    between atoms: _141  and  _143
REMARK   63  A    between atoms: _143  and  _144
REMARK   64  A    between atoms: _143  and  _146
REMARK   65  A    between atoms: _146  and  _147
REMARK   66  A    between atoms: _150  and  _152
REMARK   67  A    between atoms: _152  and  _153
REMARK   68  A    between atoms: _155  and  _157
REMARK   69  A    between atoms: _157  and  _158
REMARK   70  A    between atoms: _160  and  _162
REMARK   71  A    between atoms: _162  and  _163
REMARK   72  A    between atoms: _162  and  _165
REMARK   73  A    between atoms: _165  and  _166
REMARK   74  A    between atoms: _172  and  _174
REMARK   75  A    between atoms: _174  and  _175
REMARK   76  A    between atoms: _174  and  _177
REMARK   77  A    between atoms: _177  and  _178
REMARK   78  A    between atoms: _181  and  _183
REMARK   79  A    between atoms: _183  and  _184
REMARK   80  A    between atoms: _183  and  _186
REMARK   81  A    between atoms: _189  and  _191
REMARK   82  A    between atoms: _191  and  _192
REMARK   83  A    between atoms: _191  and  _194
REMARK   84  A    between atoms: _194  and  _195
REMARK   85  A    between atoms: _198  and  _200
REMARK   86  A    between atoms: _200  and  _201
REMARK   87  A    between atoms: _200  and  _203
REMARK   88  A    between atoms: _203  and  _204
REMARK   89  A    between atoms: _208  and  _209
REMARK   90  A    between atoms: _214  and  _216
REMARK   91  A    between atoms: _216  and  _217
REMARK   92  A    between atoms: _216  and  _219
REMARK   93  A    between atoms: _219  and  _220
REMARK   94  A    between atoms: _223  and  _225
REMARK   95  A    between atoms: _225  and  _226
REMARK   96  A    between atoms: _225  and  _228
REMARK   97  A    between atoms: _228  and  _229
REMARK   98  A    between atoms: _234  and  _236
REMARK   99  A    between atoms: _236  and  _237
REMARK  100  A    between atoms: _236  and  _239
REMARK  101  A    between atoms: _239  and  _240
REMARK  102  A    between atoms: _243  and  _245
REMARK  103  A    between atoms: _245  and  _246
REMARK  104  A    between atoms: _245  and  _248
REMARK  105  A    between atoms: _248  and  _249
REMARK  106  A    between atoms: _252  and  _254
REMARK  107  A    between atoms: _254  and  _255
REMARK  108  A    between atoms: _257  and  _259
REMARK  109  A    between atoms: _259  and  _260
REMARK  110  A    between atoms: _259  and  _262
REMARK  111  A    between atoms: _262  and  _263
REMARK  112  A    between atoms: _263  and  _264
REMARK  113  A    between atoms: _264  and  _265
REMARK  114  A    between atoms: _274  and  _276
REMARK  115  A    between atoms: _276  and  _277
REMARK  116  A    between atoms: _276  and  _279
REMARK  117  A    between atoms: _279  and  _280
REMARK  118  A    between atoms: _285  and  _287
REMARK  119  A    between atoms: _287  and  _288
REMARK  120  A    between atoms: _287  and  _290
REMARK  121  A    between atoms: _290  and  _291
REMARK  122  A    between atoms: _291  and  _292
REMARK  123  A    between atoms: _292  and  _293
REMARK  124  A    between atoms: _302  and  _304
REMARK  125  A    between atoms: _304  and  _305
REMARK  126  A    between atoms: _304  and  _307
REMARK  127  A    between atoms: _307  and  _308
REMARK  128  A    between atoms: _311  and  _313
REMARK  129  A    between atoms: _313  and  _314
REMARK  130  A    between atoms: _313  and  _316
REMARK  131  A    between atoms: _316  and  _317
REMARK  132  A    between atoms: _320  and  _322
REMARK  133  A    between atoms: _322  and  _323
REMARK  134  A    between atoms: _322  and  _325
REMARK  135  A    between atoms: _325  and  _326
REMARK  136  A    between atoms: _329  and  _331
REMARK  137  A    between atoms: _331  and  _332
REMARK  138  A    between atoms: _331  and  _334
REMARK  139  A    between atoms: _334  and  _335
REMARK  140  A    between atoms: _338  and  _340
REMARK  141  A    between atoms: _340  and  _341
REMARK  142  A    between atoms: _343  and  _345
REMARK  143  A    between atoms: _345  and  _346
REMARK  144  A    between atoms: _349  and  _351
REMARK  145  A    between atoms: _351  and  _352
REMARK  146  A    between atoms: _351  and  _354
REMARK  147  A    between atoms: _354  and  _355
REMARK  148  A    between atoms: _358  and  _360
REMARK  149  A    between atoms: _360  and  _361
REMARK  150  A    between atoms: _360  and  _363
REMARK  151  A    between atoms: _363  and  _364
REMARK  152  A    between atoms: _367  and  _369
REMARK  153  A    between atoms: _369  and  _370
REMARK  154  A    between atoms: _369  and  _372
REMARK  155  A    between atoms: _372  and  _373
REMARK  156  A    between atoms: _376  and  _378
REMARK  157  A    between atoms: _378  and  _379
REMARK  158  A    between atoms: _378  and  _381
REMARK  159  A    between atoms: _381  and  _382
REMARK  160  A    between atoms: _385  and  _387
REMARK  161  A    between atoms: _387  and  _388
REMARK  162  A    between atoms: _387  and  _390
REMARK  163  A    between atoms: _390  and  _391
REMARK  164  A    between atoms: _394  and  _396
REMARK  165  A    between atoms: _396  and  _397
REMARK  166  A    between atoms: _396  and  _399
REMARK  167  A    between atoms: _399  and  _400
REMARK  168  A    between atoms: _400  and  _401
REMARK  169  A    between atoms: _401  and  _402
REMARK  170  A    between atoms: _402  and  _403
REMARK  171  A    between atoms: _407  and  _409
REMARK  172  A    between atoms: _409  and  _410
REMARK  173  A    between atoms: _409  and  _412
REMARK  174  A    between atoms: _412  and  _413
REMARK  175  A    between atoms: _413  and  _414
REMARK  176  A    between atoms: _416  and  _418
REMARK  177  A    between atoms: _418  and  _419
REMARK  178  A    between atoms: _418  and  _421
REMARK  179  A    between atoms: _424  and  _426
REMARK  180  A    between atoms: _426  and  _427
REMARK  181  A    between atoms: _429  and  _431
REMARK  182  A    between atoms: _431  and  _432
REMARK  183  A    between atoms: _434  and  _436
REMARK  184  A    between atoms: _436  and  _437
REMARK  185  A    between atoms: _436  and  _439
REMARK  186  A    between atoms: _439  and  _440
REMARK  187  A    between atoms: _443  and  _445
REMARK  188  A    between atoms: _445  and  _446
REMARK  189  A    between atoms: _448  and  _450
REMARK  190  A    between atoms: _450  and  _451
REMARK  191  A    between atoms: _453  and  _455
REMARK  192  A    between atoms: _455  and  _456
REMARK  193  A    between atoms: _455  and  _458
REMARK  194  A    between atoms: _458  and  _459
REMARK  195  A    between atoms: _465  and  _467
REMARK  196  A    between atoms: _467  and  _468
REMARK  197  A    between atoms: _467  and  _470
REMARK  198  A    between atoms: _470  and  _471
REMARK  199  A    between atoms: _474  and  _476
REMARK  200  A    between atoms: _476  and  _477
REMARK  201  A    between atoms: _476  and  _479
REMARK  202  A    between atoms: _479  and  _480
REMARK  203  A    between atoms: _483  and  _485
REMARK  204  A    between atoms: _485  and  _486
REMARK  205  A    between atoms: _485  and  _488
REMARK  206  A    between atoms: _488  and  _489
REMARK  207  A    between atoms: _493  and  _494
REMARK  208  A    between atoms: _499  and  _501
REMARK  209  A    between atoms: _501  and  _502
REMARK  210  A    between atoms: _501  and  _504
REMARK  211  A    between atoms: _504  and  _505
REMARK  212  A    between atoms: _508  and  _510
REMARK  213  A    between atoms: _510  and  _511
REMARK  214  A    between atoms: _510  and  _513
REMARK  215  A    between atoms: _513  and  _514
REMARK  216  A    between atoms: _519  and  _521
REMARK  217  A    between atoms: _521  and  _522
REMARK  218  A    between atoms: _521  and  _524
REMARK  219  A    between atoms: _524  and  _525
REMARK  220  A    between atoms: _528  and  _530
REMARK  221  A    between atoms: _530  and  _531
REMARK  222  A    between atoms: _530  and  _533
REMARK  223  A    between atoms: _533  and  _534
REMARK  224  A    between atoms: _537  and  _539
REMARK  225  A    between atoms: _539  and  _540
REMARK  226  A    between atoms: _542  and  _544
REMARK  227  A    between atoms: _544  and  _545
REMARK  228  A    between atoms: _544  and  _547
REMARK  229  A    between atoms: _547  and  _548
REMARK  230  A    between atoms: _548  and  _549
REMARK  231  A    between atoms: _549  and  _550
REMARK  232  A    between atoms: _559  and  _561
REMARK  233  A    between atoms: _561  and  _562
REMARK  234  A    between atoms: _561  and  _564
REMARK  235  A    between atoms: _564  and  _565
REMARK                            x       y       z     vdW  Elec       q    Type
REMARK                         _______ _______ _______ _____ _____    ______ ____
ROOT
ATOM      1  O   HOH     1       9.525  15.902  26.734  0.00  0.00    +0.000 OA
ENDROOT
TORSDOF 0
REMARK  Name = ../refined-set-2016/3s43/3s43_pocket.pdb
REMARK  235 active torsions:
REMARK  status: ('A' for Active; 'I' for Inactive)
REMARK    1  A    between atoms: _1  and  _3
REMARK    2  A    between atoms: _3  and  _4
REMARK    3  A    between atoms: _3  and  _6
REMARK    4  A    between atoms: _6  and  _7
REMARK    5  A    between atoms: _7  and  _8
REMARK    6  A    between atoms: _8  and  _9
REMARK    7  A    between atoms: _18  and  _20
REMARK    8  A    between atoms: _20  and  _21
REMARK    9  A    between atoms: _20  and  _23
REMARK   10  A    between atoms: _23  and  _24
REMARK   11  A    between atoms: _27  and  _29
REMARK   12  A    between atoms: _29  and  _30
REMARK   13  A    between atoms: _29  and  _32
REMARK   14  A    between atoms: _32  and  _33
REMARK   15  A    between atoms: _36  and  _38
REMARK   16  A    between atoms: _38  and  _39
REMARK   17  A    between atoms: _38  and  _41
REMARK   18  A    between atoms: _41  and  _42
REMARK   19  A    between atoms: _45  and  _47
REMARK   20  A    between atoms: _47  and  _48
REMARK   21  A    between atoms: _47  and  _50
REMARK   22  A    between atoms: _50  and  _51
REMARK   23  A    between atoms: _54  and  _56
REMARK   24  A    between atoms: _56  and  _57
REMARK   25  A    between atoms: _59  and  _61
REMARK   26  A    between atoms: _61  and  _62
REMARK   27  A    between atoms: _65  and  _67
REMARK   28  A    between atoms: _67  and  _68
REMARK   29  A    between atoms: _67  and  _70
REMARK   30  A    between atoms: _70  and  _71
REMARK   31  A    between atoms: _74  and  _76
REMARK   32  A    between atoms: _76  and  _77
REMARK   33  A    between atoms: _76  and  _79
REMARK   34  A    between atoms: _79  and  _80
REMARK   35  A    between atoms: _83  and  _85
REMARK   36  A    between atoms: _85  and  _86
REMARK   37  A    between atoms: _85  and  _88
REMARK   38  A    between atoms: _88  and  _89
REMARK   39  A    between atoms: _92  and  _94
REMARK   40  A    between atoms: _94  and  _95
REMARK   41  A    between atoms: _94  and  _97
REMARK   42  A    between atoms: _97  and  _98
REMARK   43  A    between atoms: _101  and  _103
REMARK   44  A    between atoms: _103  and  _104
REMARK   45  A    between atoms: _103  and  _106
REMARK   46  A    between atoms: _106  and  _107
REMARK   47  A    between atoms: _107  and  _108
REMARK   48  A    between atoms: _108  and  _109
REMARK   49  A    between atoms: _109  and  _110
REMARK   50  A    between atoms: _114  and  _116
REMARK   51  A    between atoms: _116  and  _117
REMARK   52  A    between atoms: _116  and  _119
REMARK   53  A    between atoms: _119  and  _120
REMARK   54  A    between atoms: _120  and  _121
REMARK   55  A    between atoms: _123  and  _125
REMARK   56  A    between atoms: _125  and  _126
REMARK   57  A    between atoms: _125  and  _128
REMARK   58  A    between atoms: _131  and  _133
REMARK   59  A    between atoms: _133  and  _134
REMARK   60  A    between atoms: _136  and  _138
REMARK   61  A    between atoms: _138  and  _139
REMARK   62  A    between atoms: _141  and  _143
REMARK   63  A    between atoms: _143  and  _144
REMARK   64  A    between atoms: _143  and  _146
REMARK   65  A    between atoms: _146  and  _147
REMARK   66  A    between atoms: _150  and  _152
REMARK   67  A    between atoms: _152  and  _153
REMARK   68  A    between atoms: _155  and  _157
REMARK   69  A    between atoms: _157  and  _158
REMARK   70  A    between atoms: _160  and  _162
REMARK   71  A    between atoms: _162  and  _163
REMARK   72  A    between atoms: _162  and  _165
REMARK   73  A    between atoms: _165  and  _166
REMARK   74  A    between atoms: _172  and  _174
REMARK   75  A    between atoms: _174  and  _175
REMARK   76  A    between atoms: _174  and  _177
REMARK   77  A    between atoms: _177  and  _178
REMARK   78  A    between atoms: _181  and  _183
REMARK   79  A    between atoms: _183  and  _184
REMARK   80  A    between atoms: _183  and  _186
REMARK   81  A    between atoms: _189  and  _191
REMARK   82  A    between atoms: _191  and  _192
REMARK   83  A    between atoms: _191  and  _194
REMARK   84  A    between atoms: _194  and  _195
REMARK   85  A    between atoms: _198  and  _200
REMARK   86  A    between atoms: _200  and  _201
REMARK   87  A    between atoms: _200  and  _203
REMARK   88  A    between atoms: _203  and  _204
REMARK   89  A    between atoms: _208  and  _209
REMARK   90  A    between atoms: _214  and  _216
REMARK   91  A    between atoms: _216  and  _217
REMARK   92  A    between atoms: _216  and  _219
REMARK   93  A    between atoms: _219  and  _220
REMARK   94  A    between atoms: _223  and  _225
REMARK   95  A    between atoms: _225  and  _226
REMARK   96  A    between atoms: _225  and  _228
REMARK   97  A    between atoms: _228  and  _229
REMARK   98  A    between atoms: _234  and  _236
REMARK   99  A    between atoms: _236  and  _237
REMARK  100  A    between atoms: _236  and  _239
REMARK  101  A    between atoms: _239  and  _240
REMARK  102  A    between atoms: _243  and  _245
REMARK  103  A    between atoms: _245  and  _246
REMARK  104  A    between atoms: _245  and  _248
REMARK  105  A    between atoms: _248  and  _249
REMARK  106  A    between atoms: _252  and  _254
REMARK  107  A    between atoms: _254  and  _255
REMARK  108  A    between atoms: _257  and  _259
REMARK  109  A    between atoms: _259  and  _260
REMARK  110  A    between atoms: _259  and  _262
REMARK  111  A    between atoms: _262  and  _263
REMARK  112  A    between atoms: _263  and  _264
REMARK  113  A    between atoms: _264  and  _265
REMARK  114  A    between atoms: _274  and  _276
REMARK  115  A    between atoms: _276  and  _277
REMARK  116  A    between atoms: _276  and  _279
REMARK  117  A    between atoms: _279  and  _280
REMARK  118  A    between atoms: _285  and  _287
REMARK  119  A    between atoms: _287  and  _288
REMARK  120  A    between atoms: _287  and  _290
REMARK  121  A    between atoms: _290  and  _291
REMARK  122  A    between atoms: _291  and  _292
REMARK  123  A    between atoms: _292  and  _293
REMARK  124  A    between atoms: _302  and  _304
REMARK  125  A    between atoms: _304  and  _305
REMARK  126  A    between atoms: _304  and  _307
REMARK  127  A    between atoms: _307  and  _308
REMARK  128  A    between atoms: _311  and  _313
REMARK  129  A    between atoms: _313  and  _314
REMARK  130  A    between atoms: _313  and  _316
REMARK  131  A    between atoms: _316  and  _317
REMARK  132  A    between atoms: _320  and  _322
REMARK  133  A    between atoms: _322  and  _323
REMARK  134  A    between atoms: _322  and  _325
REMARK  135  A    between atoms: _325  and  _326
REMARK  136  A    between atoms: _329  and  _331
REMARK  137  A    between atoms: _331  and  _332
REMARK  138  A    between atoms: _331  and  _334
REMARK  139  A    between atoms: _334  and  _335
REMARK  140  A    between atoms: _338  and  _340
REMARK  141  A    between atoms: _340  and  _341
REMARK  142  A    between atoms: _343  and  _345
REMARK  143  A    between atoms: _345  and  _346
REMARK  144  A    between atoms: _349  and  _351
REMARK  145  A    between atoms: _351  and  _352
REMARK  146  A    between atoms: _351  and  _354
REMARK  147  A    between atoms: _354  and  _355
REMARK  148  A    between atoms: _358  and  _360
REMARK  149  A    between atoms: _360  and  _361
REMARK  150  A    between atoms: _360  and  _363
REMARK  151  A    between atoms: _363  and  _364
REMARK  152  A    between atoms: _367  and  _369
REMARK  153  A    between atoms: _369  and  _370
REMARK  154  A    between atoms: _369  and  _372
REMARK  155  A    between atoms: _372  and  _373
REMARK  156  A    between atoms: _376  and  _378
REMARK  157  A    between atoms: _378  and  _379
REMARK  158  A    between atoms: _378  and  _381
REMARK  159  A    between atoms: _381  and  _382
REMARK  160  A    between atoms: _385  and  _387
REMARK  161  A    between atoms: _387  and  _388
REMARK  162  A    between atoms: _387  and  _390
REMARK  163  A    between atoms: _390  and  _391
REMARK  164  A    between atoms: _394  and  _396
REMARK  165  A    between atoms: _396  and  _397
REMARK  166  A    between atoms: _396  and  _399
REMARK  167  A    between atoms: _399  and  _400
REMARK  168  A    between atoms: _400  and  _401
REMARK  169  A    between atoms: _401  and  _402
REMARK  170  A    between atoms: _402  and  _403
REMARK  171  A    between atoms: _407  and  _409
REMARK  172  A    between atoms: _409  and  _410
REMARK  173  A    between atoms: _409  and  _412
REMARK  174  A    between atoms: _412  and  _413
REMARK  175  A    between atoms: _413  and  _414
REMARK  176  A    between atoms: _416  and  _418
REMARK  177  A    between atoms: _418  and  _419
REMARK  178  A    between atoms: _418  and  _421
REMARK  179  A    between atoms: _424  and  _426
REMARK  180  A    between atoms: _426  and  _427
REMARK  181  A    between atoms: _429  and  _431
REMARK  182  A    between atoms: _431  and  _432
REMARK  183  A    between atoms: _434  and  _436
REMARK  184  A    between atoms: _436  and  _437
REMARK  185  A    between atoms: _436  and  _439
REMARK  186  A    between atoms: _439  and  _440
REMARK  187  A    between atoms: _443  and  _445
REMARK  188  A    between atoms: _445  and  _446
REMARK  189  A    between atoms: _448  and  _450
REMARK  190  A    between atoms: _450  and  _451
REMARK  191  A    between atoms: _453  and  _455
REMARK  192  A    between atoms: _455  and  _456
REMARK  193  A    between atoms: _455  and  _458
REMARK  194  A    between atoms: _458  and  _459
REMARK  195  A    between atoms: _465  and  _467
REMARK  196  A    between atoms: _467  and  _468
REMARK  197  A    between atoms: _467  and  _470
REMARK  198  A    between atoms: _470  and  _471
REMARK  199  A    between atoms: _474  and  _476
REMARK  200  A    between atoms: _476  and  _477
REMARK  201  A    between atoms: _476  and  _479
REMARK  202  A    between atoms: _479  and  _480
REMARK  203  A    between atoms: _483  and  _485
REMARK  204  A    between atoms: _485  and  _486
REMARK  205  A    between atoms: _485  and  _488
REMARK  206  A    between atoms: _488  and  _489
REMARK  207  A    between atoms: _493  and  _494
REMARK  208  A    between atoms: _499  and  _501
REMARK  209  A    between atoms: _501  and  _502
REMARK  210  A    between atoms: _501  and  _504
REMARK  211  A    between atoms: _504  and  _505
REMARK  212  A    between atoms: _508  and  _510
REMARK  213  A    between atoms: _510  and  _511
REMARK  214  A    between atoms: _510  and  _513
REMARK  215  A    between atoms: _513  and  _514
REMARK  216  A    between atoms: _519  and  _521
REMARK  217  A    between atoms: _521  and  _522
REMARK  218  A    between atoms: _521  and  _524
REMARK  219  A    between atoms: _524  and  _525
REMARK  220  A    between atoms: _528  and  _530
REMARK  221  A    between atoms: _530  and  _531
REMARK  222  A    between atoms: _530  and  _533
REMARK  223  A    between atoms: _533  and  _534
REMARK  224  A    between atoms: _537  and  _539
REMARK  225  A    between atoms: _539  and  _540
REMARK  226  A    between atoms: _542  and  _544
REMARK  227  A    between atoms: _544  and  _545
REMARK  228  A    between atoms: _544  and  _547
REMARK  229  A    between atoms: _547  and  _548
REMARK  230  A    between atoms: _548  and  _549
REMARK  231  A    between atoms: _549  and  _550
REMARK  232  A    between atoms: _559  and  _561
REMARK  233  A    between atoms: _561  and  _562
REMARK  234  A    between atoms: _561  and  _564
REMARK  235  A    between atoms: _564  and  _565
REMARK                            x       y       z     vdW  Elec       q    Type
REMARK                         _______ _______ _______ _____ _____    ______ ____
ROOT
ATOM      1  O   HOH     1       7.778  23.646  18.356  0.00  0.00    +0.000 OA
ENDROOT
TORSDOF 0
REMARK  Name = ../refined-set-2016/3s43/3s43_pocket.pdb
REMARK  235 active torsions:
REMARK  status: ('A' for Active; 'I' for Inactive)
REMARK    1  A    between atoms: _1  and  _3
REMARK    2  A    between atoms: _3  and  _4
REMARK    3  A    between atoms: _3  and  _6
REMARK    4  A    between atoms: _6  and  _7
REMARK    5  A    between atoms: _7  and  _8
REMARK    6  A    between atoms: _8  and  _9
REMARK    7  A    between atoms: _18  and  _20
REMARK    8  A    between atoms: _20  and  _21
REMARK    9  A    between atoms: _20  and  _23
REMARK   10  A    between atoms: _23  and  _24
REMARK   11  A    between atoms: _27  and  _29
REMARK   12  A    between atoms: _29  and  _30
REMARK   13  A    between atoms: _29  and  _32
REMARK   14  A    between atoms: _32  and  _33
REMARK   15  A    between atoms: _36  and  _38
REMARK   16  A    between atoms: _38  and  _39
REMARK   17  A    between atoms: _38  and  _41
REMARK   18  A    between atoms: _41  and  _42
REMARK   19  A    between atoms: _45  and  _47
REMARK   20  A    between atoms: _47  and  _48
REMARK   21  A    between atoms: _47  and  _50
REMARK   22  A    between atoms: _50  and  _51
REMARK   23  A    between atoms: _54  and  _56
REMARK   24  A    between atoms: _56  and  _57
REMARK   25  A    between atoms: _59  and  _61
REMARK   26  A    between atoms: _61  and  _62
REMARK   27  A    between atoms: _65  and  _67
REMARK   28  A    between atoms: _67  and  _68
REMARK   29  A    between atoms: _67  and  _70
REMARK   30  A    between atoms: _70  and  _71
REMARK   31  A    between atoms: _74  and  _76
REMARK   32  A    between atoms: _76  and  _77
REMARK   33  A    between atoms: _76  and  _79
REMARK   34  A    between atoms: _79  and  _80
REMARK   35  A    between atoms: _83  and  _85
REMARK   36  A    between atoms: _85  and  _86
REMARK   37  A    between atoms: _85  and  _88
REMARK   38  A    between atoms: _88  and  _89
REMARK   39  A    between atoms: _92  and  _94
REMARK   40  A    between atoms: _94  and  _95
REMARK   41  A    between atoms: _94  and  _97
REMARK   42  A    between atoms: _97  and  _98
REMARK   43  A    between atoms: _101  and  _103
REMARK   44  A    between atoms: _103  and  _104
REMARK   45  A    between atoms: _103  and  _106
REMARK   46  A    between atoms: _106  and  _107
REMARK   47  A    between atoms: _107  and  _108
REMARK   48  A    between atoms: _108  and  _109
REMARK   49  A    between atoms: _109  and  _110
REMARK   50  A    between atoms: _114  and  _116
REMARK   51  A    between atoms: _116  and  _117
REMARK   52  A    between atoms: _116  and  _119
REMARK   53  A    between atoms: _119  and  _120
REMARK   54  A    between atoms: _120  and  _121
REMARK   55  A    between atoms: _123  and  _125
REMARK   56  A    between atoms: _125  and  _126
REMARK   57  A    between atoms: _125  and  _128
REMARK   58  A    between atoms: _131  and  _133
REMARK   59  A    between atoms: _133  and  _134
REMARK   60  A    between atoms: _136  and  _138
REMARK   61  A    between atoms: _138  and  _139
REMARK   62  A    between atoms: _141  and  _143
REMARK   63  A    between atoms: _143  and  _144
REMARK   64  A    between atoms: _143  and  _146
REMARK   65  A    between atoms: _146  and  _147
REMARK   66  A    between atoms: _150  and  _152
REMARK   67  A    between atoms: _152  and  _153
REMARK   68  A    between atoms: _155  and  _157
REMARK   69  A    between atoms: _157  and  _158
REMARK   70  A    between atoms: _160  and  _162
REMARK   71  A    between atoms: _162  and  _163
REMARK   72  A    between atoms: _162  and  _165
REMARK   73  A    between atoms: _165  and  _166
REMARK   74  A    between atoms: _172  and  _174
REMARK   75  A    between atoms: _174  and  _175
REMARK   76  A    between atoms: _174  and  _177
REMARK   77  A    between atoms: _177  and  _178
REMARK   78  A    between atoms: _181  and  _183
REMARK   79  A    between atoms: _183  and  _184
REMARK   80  A    between atoms: _183  and  _186
REMARK   81  A    between atoms: _189  and  _191
REMARK   82  A    between atoms: _191  and  _192
REMARK   83  A    between atoms: _191  and  _194
REMARK   84  A    between atoms: _194  and  _195
REMARK   85  A    between atoms: _198  and  _200
REMARK   86  A    between atoms: _200  and  _201
REMARK   87  A    between atoms: _200  and  _203
REMARK   88  A    between atoms: _203  and  _204
REMARK   89  A    between atoms: _208  and  _209
REMARK   90  A    between atoms: _214  and  _216
REMARK   91  A    between atoms: _216  and  _217
REMARK   92  A    between atoms: _216  and  _219
REMARK   93  A    between atoms: _219  and  _220
REMARK   94  A    between atoms: _223  and  _225
REMARK   95  A    between atoms: _225  and  _226
REMARK   96  A    between atoms: _225  and  _228
REMARK   97  A    between atoms: _228  and  _229
REMARK   98  A    between atoms: _234  and  _236
REMARK   99  A    between atoms: _236  and  _237
REMARK  100  A    between atoms: _236  and  _239
REMARK  101  A    between atoms: _239  and  _240
REMARK  102  A    between atoms: _243  and  _245
REMARK  103  A    between atoms: _245  and  _246
REMARK  104  A    between atoms: _245  and  _248
REMARK  105  A    between atoms: _248  and  _249
REMARK  106  A    between atoms: _252  and  _254
REMARK  107  A    between atoms: _254  and  _255
REMARK  108  A    between atoms: _257  and  _259
REMARK  109  A    between atoms: _259  and  _260
REMARK  110  A    between atoms: _259  and  _262
REMARK  111  A    between atoms: _262  and  _263
REMARK  112  A    between atoms: _263  and  _264
REMARK  113  A    between atoms: _264  and  _265
REMARK  114  A    between atoms: _274  and  _276
REMARK  115  A    between atoms: _276  and  _277
REMARK  116  A    between atoms: _276  and  _279
REMARK  117  A    between atoms: _279  and  _280
REMARK  118  A    between atoms: _285  and  _287
REMARK  119  A    between atoms: _287  and  _288
REMARK  120  A    between atoms: _287  and  _290
REMARK  121  A    between atoms: _290  and  _291
REMARK  122  A    between atoms: _291  and  _292
REMARK  123  A    between atoms: _292  and  _293
REMARK  124  A    between atoms: _302  and  _304
REMARK  125  A    between atoms: _304  and  _305
REMARK  126  A    between atoms: _304  and  _307
REMARK  127  A    between atoms: _307  and  _308
REMARK  128  A    between atoms: _311  and  _313
REMARK  129  A    between atoms: _313  and  _314
REMARK  130  A    between atoms: _313  and  _316
REMARK  131  A    between atoms: _316  and  _317
REMARK  132  A    between atoms: _320  and  _322
REMARK  133  A    between atoms: _322  and  _323
REMARK  134  A    between atoms: _322  and  _325
REMARK  135  A    between atoms: _325  and  _326
REMARK  136  A    between atoms: _329  and  _331
REMARK  137  A    between atoms: _331  and  _332
REMARK  138  A    between atoms: _331  and  _334
REMARK  139  A    between atoms: _334  and  _335
REMARK  140  A    between atoms: _338  and  _340
REMARK  141  A    between atoms: _340  and  _341
REMARK  142  A    between atoms: _343  and  _345
REMARK  143  A    between atoms: _345  and  _346
REMARK  144  A    between atoms: _349  and  _351
REMARK  145  A    between atoms: _351  and  _352
REMARK  146  A    between atoms: _351  and  _354
REMARK  147  A    between atoms: _354  and  _355
REMARK  148  A    between atoms: _358  and  _360
REMARK  149  A    between atoms: _360  and  _361
REMARK  150  A    between atoms: _360  and  _363
REMARK  151  A    between atoms: _363  and  _364
REMARK  152  A    between atoms: _367  and  _369
REMARK  153  A    between atoms: _369  and  _370
REMARK  154  A    between atoms: _369  and  _372
REMARK  155  A    between atoms: _372  and  _373
REMARK  156  A    between atoms: _376  and  _378
REMARK  157  A    between atoms: _378  and  _379
REMARK  158  A    between atoms: _378  and  _381
REMARK  159  A    between atoms: _381  and  _382
REMARK  160  A    between atoms: _385  and  _387
REMARK  161  A    between atoms: _387  and  _388
REMARK  162  A    between atoms: _387  and  _390
REMARK  163  A    between atoms: _390  and  _391
REMARK  164  A    between atoms: _394  and  _396
REMARK  165  A    between atoms: _396  and  _397
REMARK  166  A    between atoms: _396  and  _399
REMARK  167  A    between atoms: _399  and  _400
REMARK  168  A    between atoms: _400  and  _401
REMARK  169  A    between atoms: _401  and  _402
REMARK  170  A    between atoms: _402  and  _403
REMARK  171  A    between atoms: _407  and  _409
REMARK  172  A    between atoms: _409  and  _410
REMARK  173  A    between atoms: _409  and  _412
REMARK  174  A    between atoms: _412  and  _413
REMARK  175  A    between atoms: _413  and  _414
REMARK  176  A    between atoms: _416  and  _418
REMARK  177  A    between atoms: _418  and  _419
REMARK  178  A    between atoms: _418  and  _421
REMARK  179  A    between atoms: _424  and  _426
REMARK  180  A    between atoms: _426  and  _427
REMARK  181  A    between atoms: _429  and  _431
REMARK  182  A    between atoms: _431  and  _432
REMARK  183  A    between atoms: _434  and  _436
REMARK  184  A    between atoms: _436  and  _437
REMARK  185  A    between atoms: _436  and  _439
REMARK  186  A    between atoms: _439  and  _440
REMARK  187  A    between atoms: _443  and  _445
REMARK  188  A    between atoms: _445  and  _446
REMARK  189  A    between atoms: _448  and  _450
REMARK  190  A    between atoms: _450  and  _451
REMARK  191  A    between atoms: _453  and  _455
REMARK  192  A    between atoms: _455  and  _456
REMARK  193  A    between atoms: _455  and  _458
REMARK  194  A    between atoms: _458  and  _459
REMARK  195  A    between atoms: _465  and  _467
REMARK  196  A    between atoms: _467  and  _468
REMARK  197  A    between atoms: _467  and  _470
REMARK  198  A    between atoms: _470  and  _471
REMARK  199  A    between atoms: _474  and  _476
REMARK  200  A    between atoms: _476  and  _477
REMARK  201  A    between atoms: _476  and  _479
REMARK  202  A    between atoms: _479  and  _480
REMARK  203  A    between atoms: _483  and  _485
REMARK  204  A    between atoms: _485  and  _486
REMARK  205  A    between atoms: _485  and  _488
REMARK  206  A    between atoms: _488  and  _489
REMARK  207  A    between atoms: _493  and  _494
REMARK  208  A    between atoms: _499  and  _501
REMARK  209  A    between atoms: _501  and  _502
REMARK  210  A    between atoms: _501  and  _504
REMARK  211  A    between atoms: _504  and  _505
REMARK  212  A    between atoms: _508  and  _510
REMARK  213  A    between atoms: _510  and  _511
REMARK  214  A    between atoms: _510  and  _513
REMARK  215  A    between atoms: _513  and  _514
REMARK  216  A    between atoms: _519  and  _521
REMARK  217  A    between atoms: _521  and  _522
REMARK  218  A    between atoms: _521  and  _524
REMARK  219  A    between atoms: _524  and  _525
REMARK  220  A    between atoms: _528  and  _530
REMARK  221  A    between atoms: _530  and  _531
REMARK  222  A    between atoms: _530  and  _533
REMARK  223  A    between atoms: _533  and  _534
REMARK  224  A    between atoms: _537  and  _539
REMARK  225  A    between atoms: _539  and  _540
REMARK  226  A    between atoms: _542  and  _544
REMARK  227  A    between atoms: _544  and  _545
REMARK  228  A    between atoms: _544  and  _547
REMARK  229  A    between atoms: _547  and  _548
REMARK  230  A    between atoms: _548  and  _549
REMARK  231  A    between atoms: _549  and  _550
REMARK  232  A    between atoms: _559  and  _561
REMARK  233  A    between atoms: _561  and  _562
REMARK  234  A    between atoms: _561  and  _564
REMARK  235  A    between atoms: _564  and  _565
REMARK                            x       y       z     vdW  Elec       q    Type
REMARK                         _______ _______ _______ _____ _____    ______ ____
ROOT
ATOM      1  O   HOH     1      10.610  20.151  17.689  0.00  0.00    +0.000 OA
ENDROOT
TORSDOF 0
REMARK  Name = ../refined-set-2016/3s43/3s43_pocket.pdb
REMARK  235 active torsions:
REMARK  status: ('A' for Active; 'I' for Inactive)
REMARK    1  A    between atoms: _1  and  _3
REMARK    2  A    between atoms: _3  and  _4
REMARK    3  A    between atoms: _3  and  _6
REMARK    4  A    between atoms: _6  and  _7
REMARK    5  A    between atoms: _7  and  _8
REMARK    6  A    between atoms: _8  and  _9
REMARK    7  A    between atoms: _18  and  _20
REMARK    8  A    between atoms: _20  and  _21
REMARK    9  A    between atoms: _20  and  _23
REMARK   10  A    between atoms: _23  and  _24
REMARK   11  A    between atoms: _27  and  _29
REMARK   12  A    between atoms: _29  and  _30
REMARK   13  A    between atoms: _29  and  _32
REMARK   14  A    between atoms: _32  and  _33
REMARK   15  A    between atoms: _36  and  _38
REMARK   16  A    between atoms: _38  and  _39
REMARK   17  A    between atoms: _38  and  _41
REMARK   18  A    between atoms: _41  and  _42
REMARK   19  A    between atoms: _45  and  _47
REMARK   20  A    between atoms: _47  and  _48
REMARK   21  A    between atoms: _47  and  _50
REMARK   22  A    between atoms: _50  and  _51
REMARK   23  A    between atoms: _54  and  _56
REMARK   24  A    between atoms: _56  and  _57
REMARK   25  A    between atoms: _59  and  _61
REMARK   26  A    between atoms: _61  and  _62
REMARK   27  A    between atoms: _65  and  _67
REMARK   28  A    between atoms: _67  and  _68
REMARK   29  A    between atoms: _67  and  _70
REMARK   30  A    between atoms: _70  and  _71
REMARK   31  A    between atoms: _74  and  _76
REMARK   32  A    between atoms: _76  and  _77
REMARK   33  A    between atoms: _76  and  _79
REMARK   34  A    between atoms: _79  and  _80
REMARK   35  A    between atoms: _83  and  _85
REMARK   36  A    between atoms: _85  and  _86
REMARK   37  A    between atoms: _85  and  _88
REMARK   38  A    between atoms: _88  and  _89
REMARK   39  A    between atoms: _92  and  _94
REMARK   40  A    between atoms: _94  and  _95
REMARK   41  A    between atoms: _94  and  _97
REMARK   42  A    between atoms: _97  and  _98
REMARK   43  A    between atoms: _101  and  _103
REMARK   44  A    between atoms: _103  and  _104
REMARK   45  A    between atoms: _103  and  _106
REMARK   46  A    between atoms: _106  and  _107
REMARK   47  A    between atoms: _107  and  _108
REMARK   48  A    between atoms: _108  and  _109
REMARK   49  A    between atoms: _109  and  _110
REMARK   50  A    between atoms: _114  and  _116
REMARK   51  A    between atoms: _116  and  _117
REMARK   52  A    between atoms: _116  and  _119
REMARK   53  A    between atoms: _119  and  _120
REMARK   54  A    between atoms: _120  and  _121
REMARK   55  A    between atoms: _123  and  _125
REMARK   56  A    between atoms: _125  and  _126
REMARK   57  A    between atoms: _125  and  _128
REMARK   58  A    between atoms: _131  and  _133
REMARK   59  A    between atoms: _133  and  _134
REMARK   60  A    between atoms: _136  and  _138
REMARK   61  A    between atoms: _138  and  _139
REMARK   62  A    between atoms: _141  and  _143
REMARK   63  A    between atoms: _143  and  _144
REMARK   64  A    between atoms: _143  and  _146
REMARK   65  A    between atoms: _146  and  _147
REMARK   66  A    between atoms: _150  and  _152
REMARK   67  A    between atoms: _152  and  _153
REMARK   68  A    between atoms: _155  and  _157
REMARK   69  A    between atoms: _157  and  _158
REMARK   70  A    between atoms: _160  and  _162
REMARK   71  A    between atoms: _162  and  _163
REMARK   72  A    between atoms: _162  and  _165
REMARK   73  A    between atoms: _165  and  _166
REMARK   74  A    between atoms: _172  and  _174
REMARK   75  A    between atoms: _174  and  _175
REMARK   76  A    between atoms: _174  and  _177
REMARK   77  A    between atoms: _177  and  _178
REMARK   78  A    between atoms: _181  and  _183
REMARK   79  A    between atoms: _183  and  _184
REMARK   80  A    between atoms: _183  and  _186
REMARK   81  A    between atoms: _189  and  _191
REMARK   82  A    between atoms: _191  and  _192
REMARK   83  A    between atoms: _191  and  _194
REMARK   84  A    between atoms: _194  and  _195
REMARK   85  A    between atoms: _198  and  _200
REMARK   86  A    between atoms: _200  and  _201
REMARK   87  A    between atoms: _200  and  _203
REMARK   88  A    between atoms: _203  and  _204
REMARK   89  A    between atoms: _208  and  _209
REMARK   90  A    between atoms: _214  and  _216
REMARK   91  A    between atoms: _216  and  _217
REMARK   92  A    between atoms: _216  and  _219
REMARK   93  A    between atoms: _219  and  _220
REMARK   94  A    between atoms: _223  and  _225
REMARK   95  A    between atoms: _225  and  _226
REMARK   96  A    between atoms: _225  and  _228
REMARK   97  A    between atoms: _228  and  _229
REMARK   98  A    between atoms: _234  and  _236
REMARK   99  A    between atoms: _236  and  _237
REMARK  100  A    between atoms: _236  and  _239
REMARK  101  A    between atoms: _239  and  _240
REMARK  102  A    between atoms: _243  and  _245
REMARK  103  A    between atoms: _245  and  _246
REMARK  104  A    between atoms: _245  and  _248
REMARK  105  A    between atoms: _248  and  _249
REMARK  106  A    between atoms: _252  and  _254
REMARK  107  A    between atoms: _254  and  _255
REMARK  108  A    between atoms: _257  and  _259
REMARK  109  A    between atoms: _259  and  _260
REMARK  110  A    between atoms: _259  and  _262
REMARK  111  A    between atoms: _262  and  _263
REMARK  112  A    between atoms: _263  and  _264
REMARK  113  A    between atoms: _264  and  _265
REMARK  114  A    between atoms: _274  and  _276
REMARK  115  A    between atoms: _276  and  _277
REMARK  116  A    between atoms: _276  and  _279
REMARK  117  A    between atoms: _279  and  _280
REMARK  118  A    between atoms: _285  and  _287
REMARK  119  A    between atoms: _287  and  _288
REMARK  120  A    between atoms: _287  and  _290
REMARK  121  A    between atoms: _290  and  _291
REMARK  122  A    between atoms: _291  and  _292
REMARK  123  A    between atoms: _292  and  _293
REMARK  124  A    between atoms: _302  and  _304
REMARK  125  A    between atoms: _304  and  _305
REMARK  126  A    between atoms: _304  and  _307
REMARK  127  A    between atoms: _307  and  _308
REMARK  128  A    between atoms: _311  and  _313
REMARK  129  A    between atoms: _313  and  _314
REMARK  130  A    between atoms: _313  and  _316
REMARK  131  A    between atoms: _316  and  _317
REMARK  132  A    between atoms: _320  and  _322
REMARK  133  A    between atoms: _322  and  _323
REMARK  134  A    between atoms: _322  and  _325
REMARK  135  A    between atoms: _325  and  _326
REMARK  136  A    between atoms: _329  and  _331
REMARK  137  A    between atoms: _331  and  _332
REMARK  138  A    between atoms: _331  and  _334
REMARK  139  A    between atoms: _334  and  _335
REMARK  140  A    between atoms: _338  and  _340
REMARK  141  A    between atoms: _340  and  _341
REMARK  142  A    between atoms: _343  and  _345
REMARK  143  A    between atoms: _345  and  _346
REMARK  144  A    between atoms: _349  and  _351
REMARK  145  A    between atoms: _351  and  _352
REMARK  146  A    between atoms: _351  and  _354
REMARK  147  A    between atoms: _354  and  _355
REMARK  148  A    between atoms: _358  and  _360
REMARK  149  A    between atoms: _360  and  _361
REMARK  150  A    between atoms: _360  and  _363
REMARK  151  A    between atoms: _363  and  _364
REMARK  152  A    between atoms: _367  and  _369
REMARK  153  A    between atoms: _369  and  _370
REMARK  154  A    between atoms: _369  and  _372
REMARK  155  A    between atoms: _372  and  _373
REMARK  156  A    between atoms: _376  and  _378
REMARK  157  A    between atoms: _378  and  _379
REMARK  158  A    between atoms: _378  and  _381
REMARK  159  A    between atoms: _381  and  _382
REMARK  160  A    between atoms: _385  and  _387
REMARK  161  A    between atoms: _387  and  _388
REMARK  162  A    between atoms: _387  and  _390
REMARK  163  A    between atoms: _390  and  _391
REMARK  164  A    between atoms: _394  and  _396
REMARK  165  A    between atoms: _396  and  _397
REMARK  166  A    between atoms: _396  and  _399
REMARK  167  A    between atoms: _399  and  _400
REMARK  168  A    between atoms: _400  and  _401
REMARK  169  A    between atoms: _401  and  _402
REMARK  170  A    between atoms: _402  and  _403
REMARK  171  A    between atoms: _407  and  _409
REMARK  172  A    between atoms: _409  and  _410
REMARK  173  A    between atoms: _409  and  _412
REMARK  174  A    between atoms: _412  and  _413
REMARK  175  A    between atoms: _413  and  _414
REMARK  176  A    between atoms: _416  and  _418
REMARK  177  A    between atoms: _418  and  _419
REMARK  178  A    between atoms: _418  and  _421
REMARK  179  A    between atoms: _424  and  _426
REMARK  180  A    between atoms: _426  and  _427
REMARK  181  A    between atoms: _429  and  _431
REMARK  182  A    between atoms: _431  and  _432
REMARK  183  A    between atoms: _434  and  _436
REMARK  184  A    between atoms: _436  and  _437
REMARK  185  A    between atoms: _436  and  _439
REMARK  186  A    between atoms: _439  and  _440
REMARK  187  A    between atoms: _443  and  _445
REMARK  188  A    between atoms: _445  and  _446
REMARK  189  A    between atoms: _448  and  _450
REMARK  190  A    between atoms: _450  and  _451
REMARK  191  A    between atoms: _453  and  _455
REMARK  192  A    between atoms: _455  and  _456
REMARK  193  A    between atoms: _455  and  _458
REMARK  194  A    between atoms: _458  and  _459
REMARK  195  A    between atoms: _465  and  _467
REMARK  196  A    between atoms: _467  and  _468
REMARK  197  A    between atoms: _467  and  _470
REMARK  198  A    between atoms: _470  and  _471
REMARK  199  A    between atoms: _474  and  _476
REMARK  200  A    between atoms: _476  and  _477
REMARK  201  A    between atoms: _476  and  _479
REMARK  202  A    between atoms: _479  and  _480
REMARK  203  A    between atoms: _483  and  _485
REMARK  204  A    between atoms: _485  and  _486
REMARK  205  A    between atoms: _485  and  _488
REMARK  206  A    between atoms: _488  and  _489
REMARK  207  A    between atoms: _493  and  _494
REMARK  208  A    between atoms: _499  and  _501
REMARK  209  A    between atoms: _501  and  _502
REMARK  210  A    between atoms: _501  and  _504
REMARK  211  A    between atoms: _504  and  _505
REMARK  212  A    between atoms: _508  and  _510
REMARK  213  A    between atoms: _510  and  _511
REMARK  214  A    between atoms: _510  and  _513
REMARK  215  A    between atoms: _513  and  _514
REMARK  216  A    between atoms: _519  and  _521
REMARK  217  A    between atoms: _521  and  _522
REMARK  218  A    between atoms: _521  and  _524
REMARK  219  A    between atoms: _524  and  _525
REMARK  220  A    between atoms: _528  and  _530
REMARK  221  A    between atoms: _530  and  _531
REMARK  222  A    between atoms: _530  and  _533
REMARK  223  A    between atoms: _533  and  _534
REMARK  224  A    between atoms: _537  and  _539
REMARK  225  A    between atoms: _539  and  _540
REMARK  226  A    between atoms: _542  and  _544
REMARK  227  A    between atoms: _544  and  _545
REMARK  228  A    between atoms: _544  and  _547
REMARK  229  A    between atoms: _547  and  _548
REMARK  230  A    between atoms: _548  and  _549
REMARK  231  A    between atoms: _549  and  _550
REMARK  232  A    between atoms: _559  and  _561
REMARK  233  A    between atoms: _561  and  _562
REMARK  234  A    between atoms: _561  and  _564
REMARK  235  A    between atoms: _564  and  _565
REMARK                            x       y       z     vdW  Elec       q    Type
REMARK                         _______ _______ _______ _____ _____    ______ ____
ROOT
ATOM      1  O   HOH     1      14.746  16.196  12.087  0.00  0.00    +0.000 OA
ENDROOT
TORSDOF 0
REMARK  Name = ../refined-set-2016/3s43/3s43_pocket.pdb
REMARK  235 active torsions:
REMARK  status: ('A' for Active; 'I' for Inactive)
REMARK    1  A    between atoms: _1  and  _3
REMARK    2  A    between atoms: _3  and  _4
REMARK    3  A    between atoms: _3  and  _6
REMARK    4  A    between atoms: _6  and  _7
REMARK    5  A    between atoms: _7  and  _8
REMARK    6  A    between atoms: _8  and  _9
REMARK    7  A    between atoms: _18  and  _20
REMARK    8  A    between atoms: _20  and  _21
REMARK    9  A    between atoms: _20  and  _23
REMARK   10  A    between atoms: _23  and  _24
REMARK   11  A    between atoms: _27  and  _29
REMARK   12  A    between atoms: _29  and  _30
REMARK   13  A    between atoms: _29  and  _32
REMARK   14  A    between atoms: _32  and  _33
REMARK   15  A    between atoms: _36  and  _38
REMARK   16  A    between atoms: _38  and  _39
REMARK   17  A    between atoms: _38  and  _41
REMARK   18  A    between atoms: _41  and  _42
REMARK   19  A    between atoms: _45  and  _47
REMARK   20  A    between atoms: _47  and  _48
REMARK   21  A    between atoms: _47  and  _50
REMARK   22  A    between atoms: _50  and  _51
REMARK   23  A    between atoms: _54  and  _56
REMARK   24  A    between atoms: _56  and  _57
REMARK   25  A    between atoms: _59  and  _61
REMARK   26  A    between atoms: _61  and  _62
REMARK   27  A    between atoms: _65  and  _67
REMARK   28  A    between atoms: _67  and  _68
REMARK   29  A    between atoms: _67  and  _70
REMARK   30  A    between atoms: _70  and  _71
REMARK   31  A    between atoms: _74  and  _76
REMARK   32  A    between atoms: _76  and  _77
REMARK   33  A    between atoms: _76  and  _79
REMARK   34  A    between atoms: _79  and  _80
REMARK   35  A    between atoms: _83  and  _85
REMARK   36  A    between atoms: _85  and  _86
REMARK   37  A    between atoms: _85  and  _88
REMARK   38  A    between atoms: _88  and  _89
REMARK   39  A    between atoms: _92  and  _94
REMARK   40  A    between atoms: _94  and  _95
REMARK   41  A    between atoms: _94  and  _97
REMARK   42  A    between atoms: _97  and  _98
REMARK   43  A    between atoms: _101  and  _103
REMARK   44  A    between atoms: _103  and  _104
REMARK   45  A    between atoms: _103  and  _106
REMARK   46  A    between atoms: _106  and  _107
REMARK   47  A    between atoms: _107  and  _108
REMARK   48  A    between atoms: _108  and  _109
REMARK   49  A    between atoms: _109  and  _110
REMARK   50  A    between atoms: _114  and  _116
REMARK   51  A    between atoms: _116  and  _117
REMARK   52  A    between atoms: _116  and  _119
REMARK   53  A    between atoms: _119  and  _120
REMARK   54  A    between atoms: _120  and  _121
REMARK   55  A    between atoms: _123  and  _125
REMARK   56  A    between atoms: _125  and  _126
REMARK   57  A    between atoms: _125  and  _128
REMARK   58  A    between atoms: _131  and  _133
REMARK   59  A    between atoms: _133  and  _134
REMARK   60  A    between atoms: _136  and  _138
REMARK   61  A    between atoms: _138  and  _139
REMARK   62  A    between atoms: _141  and  _143
REMARK   63  A    between atoms: _143  and  _144
REMARK   64  A    between atoms: _143  and  _146
REMARK   65  A    between atoms: _146  and  _147
REMARK   66  A    between atoms: _150  and  _152
REMARK   67  A    between atoms: _152  and  _153
REMARK   68  A    between atoms: _155  and  _157
REMARK   69  A    between atoms: _157  and  _158
REMARK   70  A    between atoms: _160  and  _162
REMARK   71  A    between atoms: _162  and  _163
REMARK   72  A    between atoms: _162  and  _165
REMARK   73  A    between atoms: _165  and  _166
REMARK   74  A    between atoms: _172  and  _174
REMARK   75  A    between atoms: _174  and  _175
REMARK   76  A    between atoms: _174  and  _177
REMARK   77  A    between atoms: _177  and  _178
REMARK   78  A    between atoms: _181  and  _183
REMARK   79  A    between atoms: _183  and  _184
REMARK   80  A    between atoms: _183  and  _186
REMARK   81  A    between atoms: _189  and  _191
REMARK   82  A    between atoms: _191  and  _192
REMARK   83  A    between atoms: _191  and  _194
REMARK   84  A    between atoms: _194  and  _195
REMARK   85  A    between atoms: _198  and  _200
REMARK   86  A    between atoms: _200  and  _201
REMARK   87  A    between atoms: _200  and  _203
REMARK   88  A    between atoms: _203  and  _204
REMARK   89  A    between atoms: _208  and  _209
REMARK   90  A    between atoms: _214  and  _216
REMARK   91  A    between atoms: _216  and  _217
REMARK   92  A    between atoms: _216  and  _219
REMARK   93  A    between atoms: _219  and  _220
REMARK   94  A    between atoms: _223  and  _225
REMARK   95  A    between atoms: _225  and  _226
REMARK   96  A    between atoms: _225  and  _228
REMARK   97  A    between atoms: _228  and  _229
REMARK   98  A    between atoms: _234  and  _236
REMARK   99  A    between atoms: _236  and  _237
REMARK  100  A    between atoms: _236  and  _239
REMARK  101  A    between atoms: _239  and  _240
REMARK  102  A    between atoms: _243  and  _245
REMARK  103  A    between atoms: _245  and  _246
REMARK  104  A    between atoms: _245  and  _248
REMARK  105  A    between atoms: _248  and  _249
REMARK  106  A    between atoms: _252  and  _254
REMARK  107  A    between atoms: _254  and  _255
REMARK  108  A    between atoms: _257  and  _259
REMARK  109  A    between atoms: _259  and  _260
REMARK  110  A    between atoms: _259  and  _262
REMARK  111  A    between atoms: _262  and  _263
REMARK  112  A    between atoms: _263  and  _264
REMARK  113  A    between atoms: _264  and  _265
REMARK  114  A    between atoms: _274  and  _276
REMARK  115  A    between atoms: _276  and  _277
REMARK  116  A    between atoms: _276  and  _279
REMARK  117  A    between atoms: _279  and  _280
REMARK  118  A    between atoms: _285  and  _287
REMARK  119  A    between atoms: _287  and  _288
REMARK  120  A    between atoms: _287  and  _290
REMARK  121  A    between atoms: _290  and  _291
REMARK  122  A    between atoms: _291  and  _292
REMARK  123  A    between atoms: _292  and  _293
REMARK  124  A    between atoms: _302  and  _304
REMARK  125  A    between atoms: _304  and  _305
REMARK  126  A    between atoms: _304  and  _307
REMARK  127  A    between atoms: _307  and  _308
REMARK  128  A    between atoms: _311  and  _313
REMARK  129  A    between atoms: _313  and  _314
REMARK  130  A    between atoms: _313  and  _316
REMARK  131  A    between atoms: _316  and  _317
REMARK  132  A    between atoms: _320  and  _322
REMARK  133  A    between atoms: _322  and  _323
REMARK  134  A    between atoms: _322  and  _325
REMARK  135  A    between atoms: _325  and  _326
REMARK  136  A    between atoms: _329  and  _331
REMARK  137  A    between atoms: _331  and  _332
REMARK  138  A    between atoms: _331  and  _334
REMARK  139  A    between atoms: _334  and  _335
REMARK  140  A    between atoms: _338  and  _340
REMARK  141  A    between atoms: _340  and  _341
REMARK  142  A    between atoms: _343  and  _345
REMARK  143  A    between atoms: _345  and  _346
REMARK  144  A    between atoms: _349  and  _351
REMARK  145  A    between atoms: _351  and  _352
REMARK  146  A    between atoms: _351  and  _354
REMARK  147  A    between atoms: _354  and  _355
REMARK  148  A    between atoms: _358  and  _360
REMARK  149  A    between atoms: _360  and  _361
REMARK  150  A    between atoms: _360  and  _363
REMARK  151  A    between atoms: _363  and  _364
REMARK  152  A    between atoms: _367  and  _369
REMARK  153  A    between atoms: _369  and  _370
REMARK  154  A    between atoms: _369  and  _372
REMARK  155  A    between atoms: _372  and  _373
REMARK  156  A    between atoms: _376  and  _378
REMARK  157  A    between atoms: _378  and  _379
REMARK  158  A    between atoms: _378  and  _381
REMARK  159  A    between atoms: _381  and  _382
REMARK  160  A    between atoms: _385  and  _387
REMARK  161  A    between atoms: _387  and  _388
REMARK  162  A    between atoms: _387  and  _390
REMARK  163  A    between atoms: _390  and  _391
REMARK  164  A    between atoms: _394  and  _396
REMARK  165  A    between atoms: _396  and  _397
REMARK  166  A    between atoms: _396  and  _399
REMARK  167  A    between atoms: _399  and  _400
REMARK  168  A    between atoms: _400  and  _401
REMARK  169  A    between atoms: _401  and  _402
REMARK  170  A    between atoms: _402  and  _403
REMARK  171  A    between atoms: _407  and  _409
REMARK  172  A    between atoms: _409  and  _410
REMARK  173  A    between atoms: _409  and  _412
REMARK  174  A    between atoms: _412  and  _413
REMARK  175  A    between atoms: _413  and  _414
REMARK  176  A    between atoms: _416  and  _418
REMARK  177  A    between atoms: _418  and  _419
REMARK  178  A    between atoms: _418  and  _421
REMARK  179  A    between atoms: _424  and  _426
REMARK  180  A    between atoms: _426  and  _427
REMARK  181  A    between atoms: _429  and  _431
REMARK  182  A    between atoms: _431  and  _432
REMARK  183  A    between atoms: _434  and  _436
REMARK  184  A    between atoms: _436  and  _437
REMARK  185  A    between atoms: _436  and  _439
REMARK  186  A    between atoms: _439  and  _440
REMARK  187  A    between atoms: _443  and  _445
REMARK  188  A    between atoms: _445  and  _446
REMARK  189  A    between atoms: _448  and  _450
REMARK  190  A    between atoms: _450  and  _451
REMARK  191  A    between atoms: _453  and  _455
REMARK  192  A    between atoms: _455  and  _456
REMARK  193  A    between atoms: _455  and  _458
REMARK  194  A    between atoms: _458  and  _459
REMARK  195  A    between atoms: _465  and  _467
REMARK  196  A    between atoms: _467  and  _468
REMARK  197  A    between atoms: _467  and  _470
REMARK  198  A    between atoms: _470  and  _471
REMARK  199  A    between atoms: _474  and  _476
REMARK  200  A    between atoms: _476  and  _477
REMARK  201  A    between atoms: _476  and  _479
REMARK  202  A    between atoms: _479  and  _480
REMARK  203  A    between atoms: _483  and  _485
REMARK  204  A    between atoms: _485  and  _486
REMARK  205  A    between atoms: _485  and  _488
REMARK  206  A    between atoms: _488  and  _489
REMARK  207  A    between atoms: _493  and  _494
REMARK  208  A    between atoms: _499  and  _501
REMARK  209  A    between atoms: _501  and  _502
REMARK  210  A    between atoms: _501  and  _504
REMARK  211  A    between atoms: _504  and  _505
REMARK  212  A    between atoms: _508  and  _510
REMARK  213  A    between atoms: _510  and  _511
REMARK  214  A    between atoms: _510  and  _513
REMARK  215  A    between atoms: _513  and  _514
REMARK  216  A    between atoms: _519  and  _521
REMARK  217  A    between atoms: _521  and  _522
REMARK  218  A    between atoms: _521  and  _524
REMARK  219  A    between atoms: _524  and  _525
REMARK  220  A    between atoms: _528  and  _530
REMARK  221  A    between atoms: _530  and  _531
REMARK  222  A    between atoms: _530  and  _533
REMARK  223  A    between atoms: _533  and  _534
REMARK  224  A    between atoms: _537  and  _539
REMARK  225  A    between atoms: _539  and  _540
REMARK  226  A    between atoms: _542  and  _544
REMARK  227  A    between atoms: _544  and  _545
REMARK  228  A    between atoms: _544  and  _547
REMARK  229  A    between atoms: _547  and  _548
REMARK  230  A    between atoms: _548  and  _549
REMARK  231  A    between atoms: _549  and  _550
REMARK  232  A    between atoms: _559  and  _561
REMARK  233  A    between atoms: _561  and  _562
REMARK  234  A    between atoms: _561  and  _564
REMARK  235  A    between atoms: _564  and  _565
REMARK                            x       y       z     vdW  Elec       q    Type
REMARK                         _______ _______ _______ _____ _____    ______ ____
ROOT
ATOM      1  O   HOH     1      11.525  17.655  16.509  0.00  0.00    +0.000 OA
ENDROOT
TORSDOF 0
REMARK  Name = ../refined-set-2016/3s43/3s43_pocket.pdb
REMARK  235 active torsions:
REMARK  status: ('A' for Active; 'I' for Inactive)
REMARK    1  A    between atoms: _1  and  _3
REMARK    2  A    between atoms: _3  and  _4
REMARK    3  A    between atoms: _3  and  _6
REMARK    4  A    between atoms: _6  and  _7
REMARK    5  A    between atoms: _7  and  _8
REMARK    6  A    between atoms: _8  and  _9
REMARK    7  A    between atoms: _18  and  _20
REMARK    8  A    between atoms: _20  and  _21
REMARK    9  A    between atoms: _20  and  _23
REMARK   10  A    between atoms: _23  and  _24
REMARK   11  A    between atoms: _27  and  _29
REMARK   12  A    between atoms: _29  and  _30
REMARK   13  A    between atoms: _29  and  _32
REMARK   14  A    between atoms: _32  and  _33
REMARK   15  A    between atoms: _36  and  _38
REMARK   16  A    between atoms: _38  and  _39
REMARK   17  A    between atoms: _38  and  _41
REMARK   18  A    between atoms: _41  and  _42
REMARK   19  A    between atoms: _45  and  _47
REMARK   20  A    between atoms: _47  and  _48
REMARK   21  A    between atoms: _47  and  _50
REMARK   22  A    between atoms: _50  and  _51
REMARK   23  A    between atoms: _54  and  _56
REMARK   24  A    between atoms: _56  and  _57
REMARK   25  A    between atoms: _59  and  _61
REMARK   26  A    between atoms: _61  and  _62
REMARK   27  A    between atoms: _65  and  _67
REMARK   28  A    between atoms: _67  and  _68
REMARK   29  A    between atoms: _67  and  _70
REMARK   30  A    between atoms: _70  and  _71
REMARK   31  A    between atoms: _74  and  _76
REMARK   32  A    between atoms: _76  and  _77
REMARK   33  A    between atoms: _76  and  _79
REMARK   34  A    between atoms: _79  and  _80
REMARK   35  A    between atoms: _83  and  _85
REMARK   36  A    between atoms: _85  and  _86
REMARK   37  A    between atoms: _85  and  _88
REMARK   38  A    between atoms: _88  and  _89
REMARK   39  A    between atoms: _92  and  _94
REMARK   40  A    between atoms: _94  and  _95
REMARK   41  A    between atoms: _94  and  _97
REMARK   42  A    between atoms: _97  and  _98
REMARK   43  A    between atoms: _101  and  _103
REMARK   44  A    between atoms: _103  and  _104
REMARK   45  A    between atoms: _103  and  _106
REMARK   46  A    between atoms: _106  and  _107
REMARK   47  A    between atoms: _107  and  _108
REMARK   48  A    between atoms: _108  and  _109
REMARK   49  A    between atoms: _109  and  _110
REMARK   50  A    between atoms: _114  and  _116
REMARK   51  A    between atoms: _116  and  _117
REMARK   52  A    between atoms: _116  and  _119
REMARK   53  A    between atoms: _119  and  _120
REMARK   54  A    between atoms: _120  and  _121
REMARK   55  A    between atoms: _123  and  _125
REMARK   56  A    between atoms: _125  and  _126
REMARK   57  A    between atoms: _125  and  _128
REMARK   58  A    between atoms: _131  and  _133
REMARK   59  A    between atoms: _133  and  _134
REMARK   60  A    between atoms: _136  and  _138
REMARK   61  A    between atoms: _138  and  _139
REMARK   62  A    between atoms: _141  and  _143
REMARK   63  A    between atoms: _143  and  _144
REMARK   64  A    between atoms: _143  and  _146
REMARK   65  A    between atoms: _146  and  _147
REMARK   66  A    between atoms: _150  and  _152
REMARK   67  A    between atoms: _152  and  _153
REMARK   68  A    between atoms: _155  and  _157
REMARK   69  A    between atoms: _157  and  _158
REMARK   70  A    between atoms: _160  and  _162
REMARK   71  A    between atoms: _162  and  _163
REMARK   72  A    between atoms: _162  and  _165
REMARK   73  A    between atoms: _165  and  _166
REMARK   74  A    between atoms: _172  and  _174
REMARK   75  A    between atoms: _174  and  _175
REMARK   76  A    between atoms: _174  and  _177
REMARK   77  A    between atoms: _177  and  _178
REMARK   78  A    between atoms: _181  and  _183
REMARK   79  A    between atoms: _183  and  _184
REMARK   80  A    between atoms: _183  and  _186
REMARK   81  A    between atoms: _189  and  _191
REMARK   82  A    between atoms: _191  and  _192
REMARK   83  A    between atoms: _191  and  _194
REMARK   84  A    between atoms: _194  and  _195
REMARK   85  A    between atoms: _198  and  _200
REMARK   86  A    between atoms: _200  and  _201
REMARK   87  A    between atoms: _200  and  _203
REMARK   88  A    between atoms: _203  and  _204
REMARK   89  A    between atoms: _208  and  _209
REMARK   90  A    between atoms: _214  and  _216
REMARK   91  A    between atoms: _216  and  _217
REMARK   92  A    between atoms: _216  and  _219
REMARK   93  A    between atoms: _219  and  _220
REMARK   94  A    between atoms: _223  and  _225
REMARK   95  A    between atoms: _225  and  _226
REMARK   96  A    between atoms: _225  and  _228
REMARK   97  A    between atoms: _228  and  _229
REMARK   98  A    between atoms: _234  and  _236
REMARK   99  A    between atoms: _236  and  _237
REMARK  100  A    between atoms: _236  and  _239
REMARK  101  A    between atoms: _239  and  _240
REMARK  102  A    between atoms: _243  and  _245
REMARK  103  A    between atoms: _245  and  _246
REMARK  104  A    between atoms: _245  and  _248
REMARK  105  A    between atoms: _248  and  _249
REMARK  106  A    between atoms: _252  and  _254
REMARK  107  A    between atoms: _254  and  _255
REMARK  108  A    between atoms: _257  and  _259
REMARK  109  A    between atoms: _259  and  _260
REMARK  110  A    between atoms: _259  and  _262
REMARK  111  A    between atoms: _262  and  _263
REMARK  112  A    between atoms: _263  and  _264
REMARK  113  A    between atoms: _264  and  _265
REMARK  114  A    between atoms: _274  and  _276
REMARK  115  A    between atoms: _276  and  _277
REMARK  116  A    between atoms: _276  and  _279
REMARK  117  A    between atoms: _279  and  _280
REMARK  118  A    between atoms: _285  and  _287
REMARK  119  A    between atoms: _287  and  _288
REMARK  120  A    between atoms: _287  and  _290
REMARK  121  A    between atoms: _290  and  _291
REMARK  122  A    between atoms: _291  and  _292
REMARK  123  A    between atoms: _292  and  _293
REMARK  124  A    between atoms: _302  and  _304
REMARK  125  A    between atoms: _304  and  _305
REMARK  126  A    between atoms: _304  and  _307
REMARK  127  A    between atoms: _307  and  _308
REMARK  128  A    between atoms: _311  and  _313
REMARK  129  A    between atoms: _313  and  _314
REMARK  130  A    between atoms: _313  and  _316
REMARK  131  A    between atoms: _316  and  _317
REMARK  132  A    between atoms: _320  and  _322
REMARK  133  A    between atoms: _322  and  _323
REMARK  134  A    between atoms: _322  and  _325
REMARK  135  A    between atoms: _325  and  _326
REMARK  136  A    between atoms: _329  and  _331
REMARK  137  A    between atoms: _331  and  _332
REMARK  138  A    between atoms: _331  and  _334
REMARK  139  A    between atoms: _334  and  _335
REMARK  140  A    between atoms: _338  and  _340
REMARK  141  A    between atoms: _340  and  _341
REMARK  142  A    between atoms: _343  and  _345
REMARK  143  A    between atoms: _345  and  _346
REMARK  144  A    between atoms: _349  and  _351
REMARK  145  A    between atoms: _351  and  _352
REMARK  146  A    between atoms: _351  and  _354
REMARK  147  A    between atoms: _354  and  _355
REMARK  148  A    between atoms: _358  and  _360
REMARK  149  A    between atoms: _360  and  _361
REMARK  150  A    between atoms: _360  and  _363
REMARK  151  A    between atoms: _363  and  _364
REMARK  152  A    between atoms: _367  and  _369
REMARK  153  A    between atoms: _369  and  _370
REMARK  154  A    between atoms: _369  and  _372
REMARK  155  A    between atoms: _372  and  _373
REMARK  156  A    between atoms: _376  and  _378
REMARK  157  A    between atoms: _378  and  _379
REMARK  158  A    between atoms: _378  and  _381
REMARK  159  A    between atoms: _381  and  _382
REMARK  160  A    between atoms: _385  and  _387
REMARK  161  A    between atoms: _387  and  _388
REMARK  162  A    between atoms: _387  and  _390
REMARK  163  A    between atoms: _390  and  _391
REMARK  164  A    between atoms: _394  and  _396
REMARK  165  A    between atoms: _396  and  _397
REMARK  166  A    between atoms: _396  and  _399
REMARK  167  A    between atoms: _399  and  _400
REMARK  168  A    between atoms: _400  and  _401
REMARK  169  A    between atoms: _401  and  _402
REMARK  170  A    between atoms: _402  and  _403
REMARK  171  A    between atoms: _407  and  _409
REMARK  172  A    between atoms: _409  and  _410
REMARK  173  A    between atoms: _409  and  _412
REMARK  174  A    between atoms: _412  and  _413
REMARK  175  A    between atoms: _413  and  _414
REMARK  176  A    between atoms: _416  and  _418
REMARK  177  A    between atoms: _418  and  _419
REMARK  178  A    between atoms: _418  and  _421
REMARK  179  A    between atoms: _424  and  _426
REMARK  180  A    between atoms: _426  and  _427
REMARK  181  A    between atoms: _429  and  _431
REMARK  182  A    between atoms: _431  and  _432
REMARK  183  A    between atoms: _434  and  _436
REMARK  184  A    between atoms: _436  and  _437
REMARK  185  A    between atoms: _436  and  _439
REMARK  186  A    between atoms: _439  and  _440
REMARK  187  A    between atoms: _443  and  _445
REMARK  188  A    between atoms: _445  and  _446
REMARK  189  A    between atoms: _448  and  _450
REMARK  190  A    between atoms: _450  and  _451
REMARK  191  A    between atoms: _453  and  _455
REMARK  192  A    between atoms: _455  and  _456
REMARK  193  A    between atoms: _455  and  _458
REMARK  194  A    between atoms: _458  and  _459
REMARK  195  A    between atoms: _465  and  _467
REMARK  196  A    between atoms: _467  and  _468
REMARK  197  A    between atoms: _467  and  _470
REMARK  198  A    between atoms: _470  and  _471
REMARK  199  A    between atoms: _474  and  _476
REMARK  200  A    between atoms: _476  and  _477
REMARK  201  A    between atoms: _476  and  _479
REMARK  202  A    between atoms: _479  and  _480
REMARK  203  A    between atoms: _483  and  _485
REMARK  204  A    between atoms: _485  and  _486
REMARK  205  A    between atoms: _485  and  _488
REMARK  206  A    between atoms: _488  and  _489
REMARK  207  A    between atoms: _493  and  _494
REMARK  208  A    between atoms: _499  and  _501
REMARK  209  A    between atoms: _501  and  _502
REMARK  210  A    between atoms: _501  and  _504
REMARK  211  A    between atoms: _504  and  _505
REMARK  212  A    between atoms: _508  and  _510
REMARK  213  A    between atoms: _510  and  _511
REMARK  214  A    between atoms: _510  and  _513
REMARK  215  A    between atoms: _513  and  _514
REMARK  216  A    between atoms: _519  and  _521
REMARK  217  A    between atoms: _521  and  _522
REMARK  218  A    between atoms: _521  and  _524
REMARK  219  A    between atoms: _524  and  _525
REMARK  220  A    between atoms: _528  and  _530
REMARK  221  A    between atoms: _530  and  _531
REMARK  222  A    between atoms: _530  and  _533
REMARK  223  A    between atoms: _533  and  _534
REMARK  224  A    between atoms: _537  and  _539
REMARK  225  A    between atoms: _539  and  _540
REMARK  226  A    between atoms: _542  and  _544
REMARK  227  A    between atoms: _544  and  _545
REMARK  228  A    between atoms: _544  and  _547
REMARK  229  A    between atoms: _547  and  _548
REMARK  230  A    between atoms: _548  and  _549
REMARK  231  A    between atoms: _549  and  _550
REMARK  232  A    between atoms: _559  and  _561
REMARK  233  A    between atoms: _561  and  _562
REMARK  234  A    between atoms: _561  and  _564
REMARK  235  A    between atoms: _564  and  _565
REMARK                            x       y       z     vdW  Elec       q    Type
REMARK                         _______ _______ _______ _____ _____    ______ ____
ROOT
ATOM      1  O   HOH     1       9.225  22.223  16.528  0.00  0.00    +0.000 OA
ENDROOT
TORSDOF 0
REMARK  Name = ../refined-set-2016/3s43/3s43_pocket.pdb
REMARK  235 active torsions:
REMARK  status: ('A' for Active; 'I' for Inactive)
REMARK    1  A    between atoms: _1  and  _3
REMARK    2  A    between atoms: _3  and  _4
REMARK    3  A    between atoms: _3  and  _6
REMARK    4  A    between atoms: _6  and  _7
REMARK    5  A    between atoms: _7  and  _8
REMARK    6  A    between atoms: _8  and  _9
REMARK    7  A    between atoms: _18  and  _20
REMARK    8  A    between atoms: _20  and  _21
REMARK    9  A    between atoms: _20  and  _23
REMARK   10  A    between atoms: _23  and  _24
REMARK   11  A    between atoms: _27  and  _29
REMARK   12  A    between atoms: _29  and  _30
REMARK   13  A    between atoms: _29  and  _32
REMARK   14  A    between atoms: _32  and  _33
REMARK   15  A    between atoms: _36  and  _38
REMARK   16  A    between atoms: _38  and  _39
REMARK   17  A    between atoms: _38  and  _41
REMARK   18  A    between atoms: _41  and  _42
REMARK   19  A    between atoms: _45  and  _47
REMARK   20  A    between atoms: _47  and  _48
REMARK   21  A    between atoms: _47  and  _50
REMARK   22  A    between atoms: _50  and  _51
REMARK   23  A    between atoms: _54  and  _56
REMARK   24  A    between atoms: _56  and  _57
REMARK   25  A    between atoms: _59  and  _61
REMARK   26  A    between atoms: _61  and  _62
REMARK   27  A    between atoms: _65  and  _67
REMARK   28  A    between atoms: _67  and  _68
REMARK   29  A    between atoms: _67  and  _70
REMARK   30  A    between atoms: _70  and  _71
REMARK   31  A    between atoms: _74  and  _76
REMARK   32  A    between atoms: _76  and  _77
REMARK   33  A    between atoms: _76  and  _79
REMARK   34  A    between atoms: _79  and  _80
REMARK   35  A    between atoms: _83  and  _85
REMARK   36  A    between atoms: _85  and  _86
REMARK   37  A    between atoms: _85  and  _88
REMARK   38  A    between atoms: _88  and  _89
REMARK   39  A    between atoms: _92  and  _94
REMARK   40  A    between atoms: _94  and  _95
REMARK   41  A    between atoms: _94  and  _97
REMARK   42  A    between atoms: _97  and  _98
REMARK   43  A    between atoms: _101  and  _103
REMARK   44  A    between atoms: _103  and  _104
REMARK   45  A    between atoms: _103  and  _106
REMARK   46  A    between atoms: _106  and  _107
REMARK   47  A    between atoms: _107  and  _108
REMARK   48  A    between atoms: _108  and  _109
REMARK   49  A    between atoms: _109  and  _110
REMARK   50  A    between atoms: _114  and  _116
REMARK   51  A    between atoms: _116  and  _117
REMARK   52  A    between atoms: _116  and  _119
REMARK   53  A    between atoms: _119  and  _120
REMARK   54  A    between atoms: _120  and  _121
REMARK   55  A    between atoms: _123  and  _125
REMARK   56  A    between atoms: _125  and  _126
REMARK   57  A    between atoms: _125  and  _128
REMARK   58  A    between atoms: _131  and  _133
REMARK   59  A    between atoms: _133  and  _134
REMARK   60  A    between atoms: _136  and  _138
REMARK   61  A    between atoms: _138  and  _139
REMARK   62  A    between atoms: _141  and  _143
REMARK   63  A    between atoms: _143  and  _144
REMARK   64  A    between atoms: _143  and  _146
REMARK   65  A    between atoms: _146  and  _147
REMARK   66  A    between atoms: _150  and  _152
REMARK   67  A    between atoms: _152  and  _153
REMARK   68  A    between atoms: _155  and  _157
REMARK   69  A    between atoms: _157  and  _158
REMARK   70  A    between atoms: _160  and  _162
REMARK   71  A    between atoms: _162  and  _163
REMARK   72  A    between atoms: _162  and  _165
REMARK   73  A    between atoms: _165  and  _166
REMARK   74  A    between atoms: _172  and  _174
REMARK   75  A    between atoms: _174  and  _175
REMARK   76  A    between atoms: _174  and  _177
REMARK   77  A    between atoms: _177  and  _178
REMARK   78  A    between atoms: _181  and  _183
REMARK   79  A    between atoms: _183  and  _184
REMARK   80  A    between atoms: _183  and  _186
REMARK   81  A    between atoms: _189  and  _191
REMARK   82  A    between atoms: _191  and  _192
REMARK   83  A    between atoms: _191  and  _194
REMARK   84  A    between atoms: _194  and  _195
REMARK   85  A    between atoms: _198  and  _200
REMARK   86  A    between atoms: _200  and  _201
REMARK   87  A    between atoms: _200  and  _203
REMARK   88  A    between atoms: _203  and  _204
REMARK   89  A    between atoms: _208  and  _209
REMARK   90  A    between atoms: _214  and  _216
REMARK   91  A    between atoms: _216  and  _217
REMARK   92  A    between atoms: _216  and  _219
REMARK   93  A    between atoms: _219  and  _220
REMARK   94  A    between atoms: _223  and  _225
REMARK   95  A    between atoms: _225  and  _226
REMARK   96  A    between atoms: _225  and  _228
REMARK   97  A    between atoms: _228  and  _229
REMARK   98  A    between atoms: _234  and  _236
REMARK   99  A    between atoms: _236  and  _237
REMARK  100  A    between atoms: _236  and  _239
REMARK  101  A    between atoms: _239  and  _240
REMARK  102  A    between atoms: _243  and  _245
REMARK  103  A    between atoms: _245  and  _246
REMARK  104  A    between atoms: _245  and  _248
REMARK  105  A    between atoms: _248  and  _249
REMARK  106  A    between atoms: _252  and  _254
REMARK  107  A    between atoms: _254  and  _255
REMARK  108  A    between atoms: _257  and  _259
REMARK  109  A    between atoms: _259  and  _260
REMARK  110  A    between atoms: _259  and  _262
REMARK  111  A    between atoms: _262  and  _263
REMARK  112  A    between atoms: _263  and  _264
REMARK  113  A    between atoms: _264  and  _265
REMARK  114  A    between atoms: _274  and  _276
REMARK  115  A    between atoms: _276  and  _277
REMARK  116  A    between atoms: _276  and  _279
REMARK  117  A    between atoms: _279  and  _280
REMARK  118  A    between atoms: _285  and  _287
REMARK  119  A    between atoms: _287  and  _288
REMARK  120  A    between atoms: _287  and  _290
REMARK  121  A    between atoms: _290  and  _291
REMARK  122  A    between atoms: _291  and  _292
REMARK  123  A    between atoms: _292  and  _293
REMARK  124  A    between atoms: _302  and  _304
REMARK  125  A    between atoms: _304  and  _305
REMARK  126  A    between atoms: _304  and  _307
REMARK  127  A    between atoms: _307  and  _308
REMARK  128  A    between atoms: _311  and  _313
REMARK  129  A    between atoms: _313  and  _314
REMARK  130  A    between atoms: _313  and  _316
REMARK  131  A    between atoms: _316  and  _317
REMARK  132  A    between atoms: _320  and  _322
REMARK  133  A    between atoms: _322  and  _323
REMARK  134  A    between atoms: _322  and  _325
REMARK  135  A    between atoms: _325  and  _326
REMARK  136  A    between atoms: _329  and  _331
REMARK  137  A    between atoms: _331  and  _332
REMARK  138  A    between atoms: _331  and  _334
REMARK  139  A    between atoms: _334  and  _335
REMARK  140  A    between atoms: _338  and  _340
REMARK  141  A    between atoms: _340  and  _341
REMARK  142  A    between atoms: _343  and  _345
REMARK  143  A    between atoms: _345  and  _346
REMARK  144  A    between atoms: _349  and  _351
REMARK  145  A    between atoms: _351  and  _352
REMARK  146  A    between atoms: _351  and  _354
REMARK  147  A    between atoms: _354  and  _355
REMARK  148  A    between atoms: _358  and  _360
REMARK  149  A    between atoms: _360  and  _361
REMARK  150  A    between atoms: _360  and  _363
REMARK  151  A    between atoms: _363  and  _364
REMARK  152  A    between atoms: _367  and  _369
REMARK  153  A    between atoms: _369  and  _370
REMARK  154  A    between atoms: _369  and  _372
REMARK  155  A    between atoms: _372  and  _373
REMARK  156  A    between atoms: _376  and  _378
REMARK  157  A    between atoms: _378  and  _379
REMARK  158  A    between atoms: _378  and  _381
REMARK  159  A    between atoms: _381  and  _382
REMARK  160  A    between atoms: _385  and  _387
REMARK  161  A    between atoms: _387  and  _388
REMARK  162  A    between atoms: _387  and  _390
REMARK  163  A    between atoms: _390  and  _391
REMARK  164  A    between atoms: _394  and  _396
REMARK  165  A    between atoms: _396  and  _397
REMARK  166  A    between atoms: _396  and  _399
REMARK  167  A    between atoms: _399  and  _400
REMARK  168  A    between atoms: _400  and  _401
REMARK  169  A    between atoms: _401  and  _402
REMARK  170  A    between atoms: _402  and  _403
REMARK  171  A    between atoms: _407  and  _409
REMARK  172  A    between atoms: _409  and  _410
REMARK  173  A    between atoms: _409  and  _412
REMARK  174  A    between atoms: _412  and  _413
REMARK  175  A    between atoms: _413  and  _414
REMARK  176  A    between atoms: _416  and  _418
REMARK  177  A    between atoms: _418  and  _419
REMARK  178  A    between atoms: _418  and  _421
REMARK  179  A    between atoms: _424  and  _426
REMARK  180  A    between atoms: _426  and  _427
REMARK  181  A    between atoms: _429  and  _431
REMARK  182  A    between atoms: _431  and  _432
REMARK  183  A    between atoms: _434  and  _436
REMARK  184  A    between atoms: _436  and  _437
REMARK  185  A    between atoms: _436  and  _439
REMARK  186  A    between atoms: _439  and  _440
REMARK  187  A    between atoms: _443  and  _445
REMARK  188  A    between atoms: _445  and  _446
REMARK  189  A    between atoms: _448  and  _450
REMARK  190  A    between atoms: _450  and  _451
REMARK  191  A    between atoms: _453  and  _455
REMARK  192  A    between atoms: _455  and  _456
REMARK  193  A    between atoms: _455  and  _458
REMARK  194  A    between atoms: _458  and  _459
REMARK  195  A    between atoms: _465  and  _467
REMARK  196  A    between atoms: _467  and  _468
REMARK  197  A    between atoms: _467  and  _470
REMARK  198  A    between atoms: _470  and  _471
REMARK  199  A    between atoms: _474  and  _476
REMARK  200  A    between atoms: _476  and  _477
REMARK  201  A    between atoms: _476  and  _479
REMARK  202  A    between atoms: _479  and  _480
REMARK  203  A    between atoms: _483  and  _485
REMARK  204  A    between atoms: _485  and  _486
REMARK  205  A    between atoms: _485  and  _488
REMARK  206  A    between atoms: _488  and  _489
REMARK  207  A    between atoms: _493  and  _494
REMARK  208  A    between atoms: _499  and  _501
REMARK  209  A    between atoms: _501  and  _502
REMARK  210  A    between atoms: _501  and  _504
REMARK  211  A    between atoms: _504  and  _505
REMARK  212  A    between atoms: _508  and  _510
REMARK  213  A    between atoms: _510  and  _511
REMARK  214  A    between atoms: _510  and  _513
REMARK  215  A    between atoms: _513  and  _514
REMARK  216  A    between atoms: _519  and  _521
REMARK  217  A    between atoms: _521  and  _522
REMARK  218  A    between atoms: _521  and  _524
REMARK  219  A    between atoms: _524  and  _525
REMARK  220  A    between atoms: _528  and  _530
REMARK  221  A    between atoms: _530  and  _531
REMARK  222  A    between atoms: _530  and  _533
REMARK  223  A    between atoms: _533  and  _534
REMARK  224  A    between atoms: _537  and  _539
REMARK  225  A    between atoms: _539  and  _540
REMARK  226  A    between atoms: _542  and  _544
REMARK  227  A    between atoms: _544  and  _545
REMARK  228  A    between atoms: _544  and  _547
REMARK  229  A    between atoms: _547  and  _548
REMARK  230  A    between atoms: _548  and  _549
REMARK  231  A    between atoms: _549  and  _550
REMARK  232  A    between atoms: _559  and  _561
REMARK  233  A    between atoms: _561  and  _562
REMARK  234  A    between atoms: _561  and  _564
REMARK  235  A    between atoms: _564  and  _565
REMARK                            x       y       z     vdW  Elec       q    Type
REMARK                         _______ _______ _______ _____ _____    ______ ____
ROOT
ATOM      1  O   HOH     1       4.758  18.893  22.549  0.00  0.00    +0.000 OA
ENDROOT
TORSDOF 0
REMARK  Name = ../refined-set-2016/3s43/3s43_pocket.pdb
REMARK  235 active torsions:
REMARK  status: ('A' for Active; 'I' for Inactive)
REMARK    1  A    between atoms: _1  and  _3
REMARK    2  A    between atoms: _3  and  _4
REMARK    3  A    between atoms: _3  and  _6
REMARK    4  A    between atoms: _6  and  _7
REMARK    5  A    between atoms: _7  and  _8
REMARK    6  A    between atoms: _8  and  _9
REMARK    7  A    between atoms: _18  and  _20
REMARK    8  A    between atoms: _20  and  _21
REMARK    9  A    between atoms: _20  and  _23
REMARK   10  A    between atoms: _23  and  _24
REMARK   11  A    between atoms: _27  and  _29
REMARK   12  A    between atoms: _29  and  _30
REMARK   13  A    between atoms: _29  and  _32
REMARK   14  A    between atoms: _32  and  _33
REMARK   15  A    between atoms: _36  and  _38
REMARK   16  A    between atoms: _38  and  _39
REMARK   17  A    between atoms: _38  and  _41
REMARK   18  A    between atoms: _41  and  _42
REMARK   19  A    between atoms: _45  and  _47
REMARK   20  A    between atoms: _47  and  _48
REMARK   21  A    between atoms: _47  and  _50
REMARK   22  A    between atoms: _50  and  _51
REMARK   23  A    between atoms: _54  and  _56
REMARK   24  A    between atoms: _56  and  _57
REMARK   25  A    between atoms: _59  and  _61
REMARK   26  A    between atoms: _61  and  _62
REMARK   27  A    between atoms: _65  and  _67
REMARK   28  A    between atoms: _67  and  _68
REMARK   29  A    between atoms: _67  and  _70
REMARK   30  A    between atoms: _70  and  _71
REMARK   31  A    between atoms: _74  and  _76
REMARK   32  A    between atoms: _76  and  _77
REMARK   33  A    between atoms: _76  and  _79
REMARK   34  A    between atoms: _79  and  _80
REMARK   35  A    between atoms: _83  and  _85
REMARK   36  A    between atoms: _85  and  _86
REMARK   37  A    between atoms: _85  and  _88
REMARK   38  A    between atoms: _88  and  _89
REMARK   39  A    between atoms: _92  and  _94
REMARK   40  A    between atoms: _94  and  _95
REMARK   41  A    between atoms: _94  and  _97
REMARK   42  A    between atoms: _97  and  _98
REMARK   43  A    between atoms: _101  and  _103
REMARK   44  A    between atoms: _103  and  _104
REMARK   45  A    between atoms: _103  and  _106
REMARK   46  A    between atoms: _106  and  _107
REMARK   47  A    between atoms: _107  and  _108
REMARK   48  A    between atoms: _108  and  _109
REMARK   49  A    between atoms: _109  and  _110
REMARK   50  A    between atoms: _114  and  _116
REMARK   51  A    between atoms: _116  and  _117
REMARK   52  A    between atoms: _116  and  _119
REMARK   53  A    between atoms: _119  and  _120
REMARK   54  A    between atoms: _120  and  _121
REMARK   55  A    between atoms: _123  and  _125
REMARK   56  A    between atoms: _125  and  _126
REMARK   57  A    between atoms: _125  and  _128
REMARK   58  A    between atoms: _131  and  _133
REMARK   59  A    between atoms: _133  and  _134
REMARK   60  A    between atoms: _136  and  _138
REMARK   61  A    between atoms: _138  and  _139
REMARK   62  A    between atoms: _141  and  _143
REMARK   63  A    between atoms: _143  and  _144
REMARK   64  A    between atoms: _143  and  _146
REMARK   65  A    between atoms: _146  and  _147
REMARK   66  A    between atoms: _150  and  _152
REMARK   67  A    between atoms: _152  and  _153
REMARK   68  A    between atoms: _155  and  _157
REMARK   69  A    between atoms: _157  and  _158
REMARK   70  A    between atoms: _160  and  _162
REMARK   71  A    between atoms: _162  and  _163
REMARK   72  A    between atoms: _162  and  _165
REMARK   73  A    between atoms: _165  and  _166
REMARK   74  A    between atoms: _172  and  _174
REMARK   75  A    between atoms: _174  and  _175
REMARK   76  A    between atoms: _174  and  _177
REMARK   77  A    between atoms: _177  and  _178
REMARK   78  A    between atoms: _181  and  _183
REMARK   79  A    between atoms: _183  and  _184
REMARK   80  A    between atoms: _183  and  _186
REMARK   81  A    between atoms: _189  and  _191
REMARK   82  A    between atoms: _191  and  _192
REMARK   83  A    between atoms: _191  and  _194
REMARK   84  A    between atoms: _194  and  _195
REMARK   85  A    between atoms: _198  and  _200
REMARK   86  A    between atoms: _200  and  _201
REMARK   87  A    between atoms: _200  and  _203
REMARK   88  A    between atoms: _203  and  _204
REMARK   89  A    between atoms: _208  and  _209
REMARK   90  A    between atoms: _214  and  _216
REMARK   91  A    between atoms: _216  and  _217
REMARK   92  A    between atoms: _216  and  _219
REMARK   93  A    between atoms: _219  and  _220
REMARK   94  A    between atoms: _223  and  _225
REMARK   95  A    between atoms: _225  and  _226
REMARK   96  A    between atoms: _225  and  _228
REMARK   97  A    between atoms: _228  and  _229
REMARK   98  A    between atoms: _234  and  _236
REMARK   99  A    between atoms: _236  and  _237
REMARK  100  A    between atoms: _236  and  _239
REMARK  101  A    between atoms: _239  and  _240
REMARK  102  A    between atoms: _243  and  _245
REMARK  103  A    between atoms: _245  and  _246
REMARK  104  A    between atoms: _245  and  _248
REMARK  105  A    between atoms: _248  and  _249
REMARK  106  A    between atoms: _252  and  _254
REMARK  107  A    between atoms: _254  and  _255
REMARK  108  A    between atoms: _257  and  _259
REMARK  109  A    between atoms: _259  and  _260
REMARK  110  A    between atoms: _259  and  _262
REMARK  111  A    between atoms: _262  and  _263
REMARK  112  A    between atoms: _263  and  _264
REMARK  113  A    between atoms: _264  and  _265
REMARK  114  A    between atoms: _274  and  _276
REMARK  115  A    between atoms: _276  and  _277
REMARK  116  A    between atoms: _276  and  _279
REMARK  117  A    between atoms: _279  and  _280
REMARK  118  A    between atoms: _285  and  _287
REMARK  119  A    between atoms: _287  and  _288
REMARK  120  A    between atoms: _287  and  _290
REMARK  121  A    between atoms: _290  and  _291
REMARK  122  A    between atoms: _291  and  _292
REMARK  123  A    between atoms: _292  and  _293
REMARK  124  A    between atoms: _302  and  _304
REMARK  125  A    between atoms: _304  and  _305
REMARK  126  A    between atoms: _304  and  _307
REMARK  127  A    between atoms: _307  and  _308
REMARK  128  A    between atoms: _311  and  _313
REMARK  129  A    between atoms: _313  and  _314
REMARK  130  A    between atoms: _313  and  _316
REMARK  131  A    between atoms: _316  and  _317
REMARK  132  A    between atoms: _320  and  _322
REMARK  133  A    between atoms: _322  and  _323
REMARK  134  A    between atoms: _322  and  _325
REMARK  135  A    between atoms: _325  and  _326
REMARK  136  A    between atoms: _329  and  _331
REMARK  137  A    between atoms: _331  and  _332
REMARK  138  A    between atoms: _331  and  _334
REMARK  139  A    between atoms: _334  and  _335
REMARK  140  A    between atoms: _338  and  _340
REMARK  141  A    between atoms: _340  and  _341
REMARK  142  A    between atoms: _343  and  _345
REMARK  143  A    between atoms: _345  and  _346
REMARK  144  A    between atoms: _349  and  _351
REMARK  145  A    between atoms: _351  and  _352
REMARK  146  A    between atoms: _351  and  _354
REMARK  147  A    between atoms: _354  and  _355
REMARK  148  A    between atoms: _358  and  _360
REMARK  149  A    between atoms: _360  and  _361
REMARK  150  A    between atoms: _360  and  _363
REMARK  151  A    between atoms: _363  and  _364
REMARK  152  A    between atoms: _367  and  _369
REMARK  153  A    between atoms: _369  and  _370
REMARK  154  A    between atoms: _369  and  _372
REMARK  155  A    between atoms: _372  and  _373
REMARK  156  A    between atoms: _376  and  _378
REMARK  157  A    between atoms: _378  and  _379
REMARK  158  A    between atoms: _378  and  _381
REMARK  159  A    between atoms: _381  and  _382
REMARK  160  A    between atoms: _385  and  _387
REMARK  161  A    between atoms: _387  and  _388
REMARK  162  A    between atoms: _387  and  _390
REMARK  163  A    between atoms: _390  and  _391
REMARK  164  A    between atoms: _394  and  _396
REMARK  165  A    between atoms: _396  and  _397
REMARK  166  A    between atoms: _396  and  _399
REMARK  167  A    between atoms: _399  and  _400
REMARK  168  A    between atoms: _400  and  _401
REMARK  169  A    between atoms: _401  and  _402
REMARK  170  A    between atoms: _402  and  _403
REMARK  171  A    between atoms: _407  and  _409
REMARK  172  A    between atoms: _409  and  _410
REMARK  173  A    between atoms: _409  and  _412
REMARK  174  A    between atoms: _412  and  _413
REMARK  175  A    between atoms: _413  and  _414
REMARK  176  A    between atoms: _416  and  _418
REMARK  177  A    between atoms: _418  and  _419
REMARK  178  A    between atoms: _418  and  _421
REMARK  179  A    between atoms: _424  and  _426
REMARK  180  A    between atoms: _426  and  _427
REMARK  181  A    between atoms: _429  and  _431
REMARK  182  A    between atoms: _431  and  _432
REMARK  183  A    between atoms: _434  and  _436
REMARK  184  A    between atoms: _436  and  _437
REMARK  185  A    between atoms: _436  and  _439
REMARK  186  A    between atoms: _439  and  _440
REMARK  187  A    between atoms: _443  and  _445
REMARK  188  A    between atoms: _445  and  _446
REMARK  189  A    between atoms: _448  and  _450
REMARK  190  A    between atoms: _450  and  _451
REMARK  191  A    between atoms: _453  and  _455
REMARK  192  A    between atoms: _455  and  _456
REMARK  193  A    between atoms: _455  and  _458
REMARK  194  A    between atoms: _458  and  _459
REMARK  195  A    between atoms: _465  and  _467
REMARK  196  A    between atoms: _467  and  _468
REMARK  197  A    between atoms: _467  and  _470
REMARK  198  A    between atoms: _470  and  _471
REMARK  199  A    between atoms: _474  and  _476
REMARK  200  A    between atoms: _476  and  _477
REMARK  201  A    between atoms: _476  and  _479
REMARK  202  A    between atoms: _479  and  _480
REMARK  203  A    between atoms: _483  and  _485
REMARK  204  A    between atoms: _485  and  _486
REMARK  205  A    between atoms: _485  and  _488
REMARK  206  A    between atoms: _488  and  _489
REMARK  207  A    between atoms: _493  and  _494
REMARK  208  A    between atoms: _499  and  _501
REMARK  209  A    between atoms: _501  and  _502
REMARK  210  A    between atoms: _501  and  _504
REMARK  211  A    between atoms: _504  and  _505
REMARK  212  A    between atoms: _508  and  _510
REMARK  213  A    between atoms: _510  and  _511
REMARK  214  A    between atoms: _510  and  _513
REMARK  215  A    between atoms: _513  and  _514
REMARK  216  A    between atoms: _519  and  _521
REMARK  217  A    between atoms: _521  and  _522
REMARK  218  A    between atoms: _521  and  _524
REMARK  219  A    between atoms: _524  and  _525
REMARK  220  A    between atoms: _528  and  _530
REMARK  221  A    between atoms: _530  and  _531
REMARK  222  A    between atoms: _530  and  _533
REMARK  223  A    between atoms: _533  and  _534
REMARK  224  A    between atoms: _537  and  _539
REMARK  225  A    between atoms: _539  and  _540
REMARK  226  A    between atoms: _542  and  _544
REMARK  227  A    between atoms: _544  and  _545
REMARK  228  A    between atoms: _544  and  _547
REMARK  229  A    between atoms: _547  and  _548
REMARK  230  A    between atoms: _548  and  _549
REMARK  231  A    between atoms: _549  and  _550
REMARK  232  A    between atoms: _559  and  _561
REMARK  233  A    between atoms: _561  and  _562
REMARK  234  A    between atoms: _561  and  _564
REMARK  235  A    between atoms: _564  and  _565
REMARK                            x       y       z     vdW  Elec       q    Type
REMARK                         _______ _______ _______ _____ _____    ______ ____
ROOT
ATOM      1  O   HOH     1      22.158  27.261  23.030  0.00  0.00    +0.000 OA
ENDROOT
TORSDOF 0
REMARK  Name = ../refined-set-2016/3s43/3s43_pocket.pdb
REMARK  235 active torsions:
REMARK  status: ('A' for Active; 'I' for Inactive)
REMARK    1  A    between atoms: _1  and  _3
REMARK    2  A    between atoms: _3  and  _4
REMARK    3  A    between atoms: _3  and  _6
REMARK    4  A    between atoms: _6  and  _7
REMARK    5  A    between atoms: _7  and  _8
REMARK    6  A    between atoms: _8  and  _9
REMARK    7  A    between atoms: _18  and  _20
REMARK    8  A    between atoms: _20  and  _21
REMARK    9  A    between atoms: _20  and  _23
REMARK   10  A    between atoms: _23  and  _24
REMARK   11  A    between atoms: _27  and  _29
REMARK   12  A    between atoms: _29  and  _30
REMARK   13  A    between atoms: _29  and  _32
REMARK   14  A    between atoms: _32  and  _33
REMARK   15  A    between atoms: _36  and  _38
REMARK   16  A    between atoms: _38  and  _39
REMARK   17  A    between atoms: _38  and  _41
REMARK   18  A    between atoms: _41  and  _42
REMARK   19  A    between atoms: _45  and  _47
REMARK   20  A    between atoms: _47  and  _48
REMARK   21  A    between atoms: _47  and  _50
REMARK   22  A    between atoms: _50  and  _51
REMARK   23  A    between atoms: _54  and  _56
REMARK   24  A    between atoms: _56  and  _57
REMARK   25  A    between atoms: _59  and  _61
REMARK   26  A    between atoms: _61  and  _62
REMARK   27  A    between atoms: _65  and  _67
REMARK   28  A    between atoms: _67  and  _68
REMARK   29  A    between atoms: _67  and  _70
REMARK   30  A    between atoms: _70  and  _71
REMARK   31  A    between atoms: _74  and  _76
REMARK   32  A    between atoms: _76  and  _77
REMARK   33  A    between atoms: _76  and  _79
REMARK   34  A    between atoms: _79  and  _80
REMARK   35  A    between atoms: _83  and  _85
REMARK   36  A    between atoms: _85  and  _86
REMARK   37  A    between atoms: _85  and  _88
REMARK   38  A    between atoms: _88  and  _89
REMARK   39  A    between atoms: _92  and  _94
REMARK   40  A    between atoms: _94  and  _95
REMARK   41  A    between atoms: _94  and  _97
REMARK   42  A    between atoms: _97  and  _98
REMARK   43  A    between atoms: _101  and  _103
REMARK   44  A    between atoms: _103  and  _104
REMARK   45  A    between atoms: _103  and  _106
REMARK   46  A    between atoms: _106  and  _107
REMARK   47  A    between atoms: _107  and  _108
REMARK   48  A    between atoms: _108  and  _109
REMARK   49  A    between atoms: _109  and  _110
REMARK   50  A    between atoms: _114  and  _116
REMARK   51  A    between atoms: _116  and  _117
REMARK   52  A    between atoms: _116  and  _119
REMARK   53  A    between atoms: _119  and  _120
REMARK   54  A    between atoms: _120  and  _121
REMARK   55  A    between atoms: _123  and  _125
REMARK   56  A    between atoms: _125  and  _126
REMARK   57  A    between atoms: _125  and  _128
REMARK   58  A    between atoms: _131  and  _133
REMARK   59  A    between atoms: _133  and  _134
REMARK   60  A    between atoms: _136  and  _138
REMARK   61  A    between atoms: _138  and  _139
REMARK   62  A    between atoms: _141  and  _143
REMARK   63  A    between atoms: _143  and  _144
REMARK   64  A    between atoms: _143  and  _146
REMARK   65  A    between atoms: _146  and  _147
REMARK   66  A    between atoms: _150  and  _152
REMARK   67  A    between atoms: _152  and  _153
REMARK   68  A    between atoms: _155  and  _157
REMARK   69  A    between atoms: _157  and  _158
REMARK   70  A    between atoms: _160  and  _162
REMARK   71  A    between atoms: _162  and  _163
REMARK   72  A    between atoms: _162  and  _165
REMARK   73  A    between atoms: _165  and  _166
REMARK   74  A    between atoms: _172  and  _174
REMARK   75  A    between atoms: _174  and  _175
REMARK   76  A    between atoms: _174  and  _177
REMARK   77  A    between atoms: _177  and  _178
REMARK   78  A    between atoms: _181  and  _183
REMARK   79  A    between atoms: _183  and  _184
REMARK   80  A    between atoms: _183  and  _186
REMARK   81  A    between atoms: _189  and  _191
REMARK   82  A    between atoms: _191  and  _192
REMARK   83  A    between atoms: _191  and  _194
REMARK   84  A    between atoms: _194  and  _195
REMARK   85  A    between atoms: _198  and  _200
REMARK   86  A    between atoms: _200  and  _201
REMARK   87  A    between atoms: _200  and  _203
REMARK   88  A    between atoms: _203  and  _204
REMARK   89  A    between atoms: _208  and  _209
REMARK   90  A    between atoms: _214  and  _216
REMARK   91  A    between atoms: _216  and  _217
REMARK   92  A    between atoms: _216  and  _219
REMARK   93  A    between atoms: _219  and  _220
REMARK   94  A    between atoms: _223  and  _225
REMARK   95  A    between atoms: _225  and  _226
REMARK   96  A    between atoms: _225  and  _228
REMARK   97  A    between atoms: _228  and  _229
REMARK   98  A    between atoms: _234  and  _236
REMARK   99  A    between atoms: _236  and  _237
REMARK  100  A    between atoms: _236  and  _239
REMARK  101  A    between atoms: _239  and  _240
REMARK  102  A    between atoms: _243  and  _245
REMARK  103  A    between atoms: _245  and  _246
REMARK  104  A    between atoms: _245  and  _248
REMARK  105  A    between atoms: _248  and  _249
REMARK  106  A    between atoms: _252  and  _254
REMARK  107  A    between atoms: _254  and  _255
REMARK  108  A    between atoms: _257  and  _259
REMARK  109  A    between atoms: _259  and  _260
REMARK  110  A    between atoms: _259  and  _262
REMARK  111  A    between atoms: _262  and  _263
REMARK  112  A    between atoms: _263  and  _264
REMARK  113  A    between atoms: _264  and  _265
REMARK  114  A    between atoms: _274  and  _276
REMARK  115  A    between atoms: _276  and  _277
REMARK  116  A    between atoms: _276  and  _279
REMARK  117  A    between atoms: _279  and  _280
REMARK  118  A    between atoms: _285  and  _287
REMARK  119  A    between atoms: _287  and  _288
REMARK  120  A    between atoms: _287  and  _290
REMARK  121  A    between atoms: _290  and  _291
REMARK  122  A    between atoms: _291  and  _292
REMARK  123  A    between atoms: _292  and  _293
REMARK  124  A    between atoms: _302  and  _304
REMARK  125  A    between atoms: _304  and  _305
REMARK  126  A    between atoms: _304  and  _307
REMARK  127  A    between atoms: _307  and  _308
REMARK  128  A    between atoms: _311  and  _313
REMARK  129  A    between atoms: _313  and  _314
REMARK  130  A    between atoms: _313  and  _316
REMARK  131  A    between atoms: _316  and  _317
REMARK  132  A    between atoms: _320  and  _322
REMARK  133  A    between atoms: _322  and  _323
REMARK  134  A    between atoms: _322  and  _325
REMARK  135  A    between atoms: _325  and  _326
REMARK  136  A    between atoms: _329  and  _331
REMARK  137  A    between atoms: _331  and  _332
REMARK  138  A    between atoms: _331  and  _334
REMARK  139  A    between atoms: _334  and  _335
REMARK  140  A    between atoms: _338  and  _340
REMARK  141  A    between atoms: _340  and  _341
REMARK  142  A    between atoms: _343  and  _345
REMARK  143  A    between atoms: _345  and  _346
REMARK  144  A    between atoms: _349  and  _351
REMARK  145  A    between atoms: _351  and  _352
REMARK  146  A    between atoms: _351  and  _354
REMARK  147  A    between atoms: _354  and  _355
REMARK  148  A    between atoms: _358  and  _360
REMARK  149  A    between atoms: _360  and  _361
REMARK  150  A    between atoms: _360  and  _363
REMARK  151  A    between atoms: _363  and  _364
REMARK  152  A    between atoms: _367  and  _369
REMARK  153  A    between atoms: _369  and  _370
REMARK  154  A    between atoms: _369  and  _372
REMARK  155  A    between atoms: _372  and  _373
REMARK  156  A    between atoms: _376  and  _378
REMARK  157  A    between atoms: _378  and  _379
REMARK  158  A    between atoms: _378  and  _381
REMARK  159  A    between atoms: _381  and  _382
REMARK  160  A    between atoms: _385  and  _387
REMARK  161  A    between atoms: _387  and  _388
REMARK  162  A    between atoms: _387  and  _390
REMARK  163  A    between atoms: _390  and  _391
REMARK  164  A    between atoms: _394  and  _396
REMARK  165  A    between atoms: _396  and  _397
REMARK  166  A    between atoms: _396  and  _399
REMARK  167  A    between atoms: _399  and  _400
REMARK  168  A    between atoms: _400  and  _401
REMARK  169  A    between atoms: _401  and  _402
REMARK  170  A    between atoms: _402  and  _403
REMARK  171  A    between atoms: _407  and  _409
REMARK  172  A    between atoms: _409  and  _410
REMARK  173  A    between atoms: _409  and  _412
REMARK  174  A    between atoms: _412  and  _413
REMARK  175  A    between atoms: _413  and  _414
REMARK  176  A    between atoms: _416  and  _418
REMARK  177  A    between atoms: _418  and  _419
REMARK  178  A    between atoms: _418  and  _421
REMARK  179  A    between atoms: _424  and  _426
REMARK  180  A    between atoms: _426  and  _427
REMARK  181  A    between atoms: _429  and  _431
REMARK  182  A    between atoms: _431  and  _432
REMARK  183  A    between atoms: _434  and  _436
REMARK  184  A    between atoms: _436  and  _437
REMARK  185  A    between atoms: _436  and  _439
REMARK  186  A    between atoms: _439  and  _440
REMARK  187  A    between atoms: _443  and  _445
REMARK  188  A    between atoms: _445  and  _446
REMARK  189  A    between atoms: _448  and  _450
REMARK  190  A    between atoms: _450  and  _451
REMARK  191  A    between atoms: _453  and  _455
REMARK  192  A    between atoms: _455  and  _456
REMARK  193  A    between atoms: _455  and  _458
REMARK  194  A    between atoms: _458  and  _459
REMARK  195  A    between atoms: _465  and  _467
REMARK  196  A    between atoms: _467  and  _468
REMARK  197  A    between atoms: _467  and  _470
REMARK  198  A    between atoms: _470  and  _471
REMARK  199  A    between atoms: _474  and  _476
REMARK  200  A    between atoms: _476  and  _477
REMARK  201  A    between atoms: _476  and  _479
REMARK  202  A    between atoms: _479  and  _480
REMARK  203  A    between atoms: _483  and  _485
REMARK  204  A    between atoms: _485  and  _486
REMARK  205  A    between atoms: _485  and  _488
REMARK  206  A    between atoms: _488  and  _489
REMARK  207  A    between atoms: _493  and  _494
REMARK  208  A    between atoms: _499  and  _501
REMARK  209  A    between atoms: _501  and  _502
REMARK  210  A    between atoms: _501  and  _504
REMARK  211  A    between atoms: _504  and  _505
REMARK  212  A    between atoms: _508  and  _510
REMARK  213  A    between atoms: _510  and  _511
REMARK  214  A    between atoms: _510  and  _513
REMARK  215  A    between atoms: _513  and  _514
REMARK  216  A    between atoms: _519  and  _521
REMARK  217  A    between atoms: _521  and  _522
REMARK  218  A    between atoms: _521  and  _524
REMARK  219  A    between atoms: _524  and  _525
REMARK  220  A    between atoms: _528  and  _530
REMARK  221  A    between atoms: _530  and  _531
REMARK  222  A    between atoms: _530  and  _533
REMARK  223  A    between atoms: _533  and  _534
REMARK  224  A    between atoms: _537  and  _539
REMARK  225  A    between atoms: _539  and  _540
REMARK  226  A    between atoms: _542  and  _544
REMARK  227  A    between atoms: _544  and  _545
REMARK  228  A    between atoms: _544  and  _547
REMARK  229  A    between atoms: _547  and  _548
REMARK  230  A    between atoms: _548  and  _549
REMARK  231  A    between atoms: _549  and  _550
REMARK  232  A    between atoms: _559  and  _561
REMARK  233  A    between atoms: _561  and  _562
REMARK  234  A    between atoms: _561  and  _564
REMARK  235  A    between atoms: _564  and  _565
REMARK                            x       y       z     vdW  Elec       q    Type
REMARK                         _______ _______ _______ _____ _____    ______ ____
ROOT
ATOM      1  O   HOH     1      12.325  16.809  11.849  0.00  0.00    +0.000 OA
ENDROOT
TORSDOF 0
REMARK  Name = ../refined-set-2016/3s43/3s43_pocket.pdb
REMARK  235 active torsions:
REMARK  status: ('A' for Active; 'I' for Inactive)
REMARK    1  A    between atoms: _1  and  _3
REMARK    2  A    between atoms: _3  and  _4
REMARK    3  A    between atoms: _3  and  _6
REMARK    4  A    between atoms: _6  and  _7
REMARK    5  A    between atoms: _7  and  _8
REMARK    6  A    between atoms: _8  and  _9
REMARK    7  A    between atoms: _18  and  _20
REMARK    8  A    between atoms: _20  and  _21
REMARK    9  A    between atoms: _20  and  _23
REMARK   10  A    between atoms: _23  and  _24
REMARK   11  A    between atoms: _27  and  _29
REMARK   12  A    between atoms: _29  and  _30
REMARK   13  A    between atoms: _29  and  _32
REMARK   14  A    between atoms: _32  and  _33
REMARK   15  A    between atoms: _36  and  _38
REMARK   16  A    between atoms: _38  and  _39
REMARK   17  A    between atoms: _38  and  _41
REMARK   18  A    between atoms: _41  and  _42
REMARK   19  A    between atoms: _45  and  _47
REMARK   20  A    between atoms: _47  and  _48
REMARK   21  A    between atoms: _47  and  _50
REMARK   22  A    between atoms: _50  and  _51
REMARK   23  A    between atoms: _54  and  _56
REMARK   24  A    between atoms: _56  and  _57
REMARK   25  A    between atoms: _59  and  _61
REMARK   26  A    between atoms: _61  and  _62
REMARK   27  A    between atoms: _65  and  _67
REMARK   28  A    between atoms: _67  and  _68
REMARK   29  A    between atoms: _67  and  _70
REMARK   30  A    between atoms: _70  and  _71
REMARK   31  A    between atoms: _74  and  _76
REMARK   32  A    between atoms: _76  and  _77
REMARK   33  A    between atoms: _76  and  _79
REMARK   34  A    between atoms: _79  and  _80
REMARK   35  A    between atoms: _83  and  _85
REMARK   36  A    between atoms: _85  and  _86
REMARK   37  A    between atoms: _85  and  _88
REMARK   38  A    between atoms: _88  and  _89
REMARK   39  A    between atoms: _92  and  _94
REMARK   40  A    between atoms: _94  and  _95
REMARK   41  A    between atoms: _94  and  _97
REMARK   42  A    between atoms: _97  and  _98
REMARK   43  A    between atoms: _101  and  _103
REMARK   44  A    between atoms: _103  and  _104
REMARK   45  A    between atoms: _103  and  _106
REMARK   46  A    between atoms: _106  and  _107
REMARK   47  A    between atoms: _107  and  _108
REMARK   48  A    between atoms: _108  and  _109
REMARK   49  A    between atoms: _109  and  _110
REMARK   50  A    between atoms: _114  and  _116
REMARK   51  A    between atoms: _116  and  _117
REMARK   52  A    between atoms: _116  and  _119
REMARK   53  A    between atoms: _119  and  _120
REMARK   54  A    between atoms: _120  and  _121
REMARK   55  A    between atoms: _123  and  _125
REMARK   56  A    between atoms: _125  and  _126
REMARK   57  A    between atoms: _125  and  _128
REMARK   58  A    between atoms: _131  and  _133
REMARK   59  A    between atoms: _133  and  _134
REMARK   60  A    between atoms: _136  and  _138
REMARK   61  A    between atoms: _138  and  _139
REMARK   62  A    between atoms: _141  and  _143
REMARK   63  A    between atoms: _143  and  _144
REMARK   64  A    between atoms: _143  and  _146
REMARK   65  A    between atoms: _146  and  _147
REMARK   66  A    between atoms: _150  and  _152
REMARK   67  A    between atoms: _152  and  _153
REMARK   68  A    between atoms: _155  and  _157
REMARK   69  A    between atoms: _157  and  _158
REMARK   70  A    between atoms: _160  and  _162
REMARK   71  A    between atoms: _162  and  _163
REMARK   72  A    between atoms: _162  and  _165
REMARK   73  A    between atoms: _165  and  _166
REMARK   74  A    between atoms: _172  and  _174
REMARK   75  A    between atoms: _174  and  _175
REMARK   76  A    between atoms: _174  and  _177
REMARK   77  A    between atoms: _177  and  _178
REMARK   78  A    between atoms: _181  and  _183
REMARK   79  A    between atoms: _183  and  _184
REMARK   80  A    between atoms: _183  and  _186
REMARK   81  A    between atoms: _189  and  _191
REMARK   82  A    between atoms: _191  and  _192
REMARK   83  A    between atoms: _191  and  _194
REMARK   84  A    between atoms: _194  and  _195
REMARK   85  A    between atoms: _198  and  _200
REMARK   86  A    between atoms: _200  and  _201
REMARK   87  A    between atoms: _200  and  _203
REMARK   88  A    between atoms: _203  and  _204
REMARK   89  A    between atoms: _208  and  _209
REMARK   90  A    between atoms: _214  and  _216
REMARK   91  A    between atoms: _216  and  _217
REMARK   92  A    between atoms: _216  and  _219
REMARK   93  A    between atoms: _219  and  _220
REMARK   94  A    between atoms: _223  and  _225
REMARK   95  A    between atoms: _225  and  _226
REMARK   96  A    between atoms: _225  and  _228
REMARK   97  A    between atoms: _228  and  _229
REMARK   98  A    between atoms: _234  and  _236
REMARK   99  A    between atoms: _236  and  _237
REMARK  100  A    between atoms: _236  and  _239
REMARK  101  A    between atoms: _239  and  _240
REMARK  102  A    between atoms: _243  and  _245
REMARK  103  A    between atoms: _245  and  _246
REMARK  104  A    between atoms: _245  and  _248
REMARK  105  A    between atoms: _248  and  _249
REMARK  106  A    between atoms: _252  and  _254
REMARK  107  A    between atoms: _254  and  _255
REMARK  108  A    between atoms: _257  and  _259
REMARK  109  A    between atoms: _259  and  _260
REMARK  110  A    between atoms: _259  and  _262
REMARK  111  A    between atoms: _262  and  _263
REMARK  112  A    between atoms: _263  and  _264
REMARK  113  A    between atoms: _264  and  _265
REMARK  114  A    between atoms: _274  and  _276
REMARK  115  A    between atoms: _276  and  _277
REMARK  116  A    between atoms: _276  and  _279
REMARK  117  A    between atoms: _279  and  _280
REMARK  118  A    between atoms: _285  and  _287
REMARK  119  A    between atoms: _287  and  _288
REMARK  120  A    between atoms: _287  and  _290
REMARK  121  A    between atoms: _290  and  _291
REMARK  122  A    between atoms: _291  and  _292
REMARK  123  A    between atoms: _292  and  _293
REMARK  124  A    between atoms: _302  and  _304
REMARK  125  A    between atoms: _304  and  _305
REMARK  126  A    between atoms: _304  and  _307
REMARK  127  A    between atoms: _307  and  _308
REMARK  128  A    between atoms: _311  and  _313
REMARK  129  A    between atoms: _313  and  _314
REMARK  130  A    between atoms: _313  and  _316
REMARK  131  A    between atoms: _316  and  _317
REMARK  132  A    between atoms: _320  and  _322
REMARK  133  A    between atoms: _322  and  _323
REMARK  134  A    between atoms: _322  and  _325
REMARK  135  A    between atoms: _325  and  _326
REMARK  136  A    between atoms: _329  and  _331
REMARK  137  A    between atoms: _331  and  _332
REMARK  138  A    between atoms: _331  and  _334
REMARK  139  A    between atoms: _334  and  _335
REMARK  140  A    between atoms: _338  and  _340
REMARK  141  A    between atoms: _340  and  _341
REMARK  142  A    between atoms: _343  and  _345
REMARK  143  A    between atoms: _345  and  _346
REMARK  144  A    between atoms: _349  and  _351
REMARK  145  A    between atoms: _351  and  _352
REMARK  146  A    between atoms: _351  and  _354
REMARK  147  A    between atoms: _354  and  _355
REMARK  148  A    between atoms: _358  and  _360
REMARK  149  A    between atoms: _360  and  _361
REMARK  150  A    between atoms: _360  and  _363
REMARK  151  A    between atoms: _363  and  _364
REMARK  152  A    between atoms: _367  and  _369
REMARK  153  A    between atoms: _369  and  _370
REMARK  154  A    between atoms: _369  and  _372
REMARK  155  A    between atoms: _372  and  _373
REMARK  156  A    between atoms: _376  and  _378
REMARK  157  A    between atoms: _378  and  _379
REMARK  158  A    between atoms: _378  and  _381
REMARK  159  A    between atoms: _381  and  _382
REMARK  160  A    between atoms: _385  and  _387
REMARK  161  A    between atoms: _387  and  _388
REMARK  162  A    between atoms: _387  and  _390
REMARK  163  A    between atoms: _390  and  _391
REMARK  164  A    between atoms: _394  and  _396
REMARK  165  A    between atoms: _396  and  _397
REMARK  166  A    between atoms: _396  and  _399
REMARK  167  A    between atoms: _399  and  _400
REMARK  168  A    between atoms: _400  and  _401
REMARK  169  A    between atoms: _401  and  _402
REMARK  170  A    between atoms: _402  and  _403
REMARK  171  A    between atoms: _407  and  _409
REMARK  172  A    between atoms: _409  and  _410
REMARK  173  A    between atoms: _409  and  _412
REMARK  174  A    between atoms: _412  and  _413
REMARK  175  A    between atoms: _413  and  _414
REMARK  176  A    between atoms: _416  and  _418
REMARK  177  A    between atoms: _418  and  _419
REMARK  178  A    between atoms: _418  and  _421
REMARK  179  A    between atoms: _424  and  _426
REMARK  180  A    between atoms: _426  and  _427
REMARK  181  A    between atoms: _429  and  _431
REMARK  182  A    between atoms: _431  and  _432
REMARK  183  A    between atoms: _434  and  _436
REMARK  184  A    between atoms: _436  and  _437
REMARK  185  A    between atoms: _436  and  _439
REMARK  186  A    between atoms: _439  and  _440
REMARK  187  A    between atoms: _443  and  _445
REMARK  188  A    between atoms: _445  and  _446
REMARK  189  A    between atoms: _448  and  _450
REMARK  190  A    between atoms: _450  and  _451
REMARK  191  A    between atoms: _453  and  _455
REMARK  192  A    between atoms: _455  and  _456
REMARK  193  A    between atoms: _455  and  _458
REMARK  194  A    between atoms: _458  and  _459
REMARK  195  A    between atoms: _465  and  _467
REMARK  196  A    between atoms: _467  and  _468
REMARK  197  A    between atoms: _467  and  _470
REMARK  198  A    between atoms: _470  and  _471
REMARK  199  A    between atoms: _474  and  _476
REMARK  200  A    between atoms: _476  and  _477
REMARK  201  A    between atoms: _476  and  _479
REMARK  202  A    between atoms: _479  and  _480
REMARK  203  A    between atoms: _483  and  _485
REMARK  204  A    between atoms: _485  and  _486
REMARK  205  A    between atoms: _485  and  _488
REMARK  206  A    between atoms: _488  and  _489
REMARK  207  A    between atoms: _493  and  _494
REMARK  208  A    between atoms: _499  and  _501
REMARK  209  A    between atoms: _501  and  _502
REMARK  210  A    between atoms: _501  and  _504
REMARK  211  A    between atoms: _504  and  _505
REMARK  212  A    between atoms: _508  and  _510
REMARK  213  A    between atoms: _510  and  _511
REMARK  214  A    between atoms: _510  and  _513
REMARK  215  A    between atoms: _513  and  _514
REMARK  216  A    between atoms: _519  and  _521
REMARK  217  A    between atoms: _521  and  _522
REMARK  218  A    between atoms: _521  and  _524
REMARK  219  A    between atoms: _524  and  _525
REMARK  220  A    between atoms: _528  and  _530
REMARK  221  A    between atoms: _530  and  _531
REMARK  222  A    between atoms: _530  and  _533
REMARK  223  A    between atoms: _533  and  _534
REMARK  224  A    between atoms: _537  and  _539
REMARK  225  A    between atoms: _539  and  _540
REMARK  226  A    between atoms: _542  and  _544
REMARK  227  A    between atoms: _544  and  _545
REMARK  228  A    between atoms: _544  and  _547
REMARK  229  A    between atoms: _547  and  _548
REMARK  230  A    between atoms: _548  and  _549
REMARK  231  A    between atoms: _549  and  _550
REMARK  232  A    between atoms: _559  and  _561
REMARK  233  A    between atoms: _561  and  _562
REMARK  234  A    between atoms: _561  and  _564
REMARK  235  A    between atoms: _564  and  _565
REMARK                            x       y       z     vdW  Elec       q    Type
REMARK                         _______ _______ _______ _____ _____    ______ ____
ROOT
ATOM      1  O   HOH     1      15.416  15.049   9.575  0.00  0.00    +0.000 OA
ENDROOT
TORSDOF 0
REMARK  Name = ../refined-set-2016/3s43/3s43_pocket.pdb
REMARK  235 active torsions:
REMARK  status: ('A' for Active; 'I' for Inactive)
REMARK    1  A    between atoms: _1  and  _3
REMARK    2  A    between atoms: _3  and  _4
REMARK    3  A    between atoms: _3  and  _6
REMARK    4  A    between atoms: _6  and  _7
REMARK    5  A    between atoms: _7  and  _8
REMARK    6  A    between atoms: _8  and  _9
REMARK    7  A    between atoms: _18  and  _20
REMARK    8  A    between atoms: _20  and  _21
REMARK    9  A    between atoms: _20  and  _23
REMARK   10  A    between atoms: _23  and  _24
REMARK   11  A    between atoms: _27  and  _29
REMARK   12  A    between atoms: _29  and  _30
REMARK   13  A    between atoms: _29  and  _32
REMARK   14  A    between atoms: _32  and  _33
REMARK   15  A    between atoms: _36  and  _38
REMARK   16  A    between atoms: _38  and  _39
REMARK   17  A    between atoms: _38  and  _41
REMARK   18  A    between atoms: _41  and  _42
REMARK   19  A    between atoms: _45  and  _47
REMARK   20  A    between atoms: _47  and  _48
REMARK   21  A    between atoms: _47  and  _50
REMARK   22  A    between atoms: _50  and  _51
REMARK   23  A    between atoms: _54  and  _56
REMARK   24  A    between atoms: _56  and  _57
REMARK   25  A    between atoms: _59  and  _61
REMARK   26  A    between atoms: _61  and  _62
REMARK   27  A    between atoms: _65  and  _67
REMARK   28  A    between atoms: _67  and  _68
REMARK   29  A    between atoms: _67  and  _70
REMARK   30  A    between atoms: _70  and  _71
REMARK   31  A    between atoms: _74  and  _76
REMARK   32  A    between atoms: _76  and  _77
REMARK   33  A    between atoms: _76  and  _79
REMARK   34  A    between atoms: _79  and  _80
REMARK   35  A    between atoms: _83  and  _85
REMARK   36  A    between atoms: _85  and  _86
REMARK   37  A    between atoms: _85  and  _88
REMARK   38  A    between atoms: _88  and  _89
REMARK   39  A    between atoms: _92  and  _94
REMARK   40  A    between atoms: _94  and  _95
REMARK   41  A    between atoms: _94  and  _97
REMARK   42  A    between atoms: _97  and  _98
REMARK   43  A    between atoms: _101  and  _103
REMARK   44  A    between atoms: _103  and  _104
REMARK   45  A    between atoms: _103  and  _106
REMARK   46  A    between atoms: _106  and  _107
REMARK   47  A    between atoms: _107  and  _108
REMARK   48  A    between atoms: _108  and  _109
REMARK   49  A    between atoms: _109  and  _110
REMARK   50  A    between atoms: _114  and  _116
REMARK   51  A    between atoms: _116  and  _117
REMARK   52  A    between atoms: _116  and  _119
REMARK   53  A    between atoms: _119  and  _120
REMARK   54  A    between atoms: _120  and  _121
REMARK   55  A    between atoms: _123  and  _125
REMARK   56  A    between atoms: _125  and  _126
REMARK   57  A    between atoms: _125  and  _128
REMARK   58  A    between atoms: _131  and  _133
REMARK   59  A    between atoms: _133  and  _134
REMARK   60  A    between atoms: _136  and  _138
REMARK   61  A    between atoms: _138  and  _139
REMARK   62  A    between atoms: _141  and  _143
REMARK   63  A    between atoms: _143  and  _144
REMARK   64  A    between atoms: _143  and  _146
REMARK   65  A    between atoms: _146  and  _147
REMARK   66  A    between atoms: _150  and  _152
REMARK   67  A    between atoms: _152  and  _153
REMARK   68  A    between atoms: _155  and  _157
REMARK   69  A    between atoms: _157  and  _158
REMARK   70  A    between atoms: _160  and  _162
REMARK   71  A    between atoms: _162  and  _163
REMARK   72  A    between atoms: _162  and  _165
REMARK   73  A    between atoms: _165  and  _166
REMARK   74  A    between atoms: _172  and  _174
REMARK   75  A    between atoms: _174  and  _175
REMARK   76  A    between atoms: _174  and  _177
REMARK   77  A    between atoms: _177  and  _178
REMARK   78  A    between atoms: _181  and  _183
REMARK   79  A    between atoms: _183  and  _184
REMARK   80  A    between atoms: _183  and  _186
REMARK   81  A    between atoms: _189  and  _191
REMARK   82  A    between atoms: _191  and  _192
REMARK   83  A    between atoms: _191  and  _194
REMARK   84  A    between atoms: _194  and  _195
REMARK   85  A    between atoms: _198  and  _200
REMARK   86  A    between atoms: _200  and  _201
REMARK   87  A    between atoms: _200  and  _203
REMARK   88  A    between atoms: _203  and  _204
REMARK   89  A    between atoms: _208  and  _209
REMARK   90  A    between atoms: _214  and  _216
REMARK   91  A    between atoms: _216  and  _217
REMARK   92  A    between atoms: _216  and  _219
REMARK   93  A    between atoms: _219  and  _220
REMARK   94  A    between atoms: _223  and  _225
REMARK   95  A    between atoms: _225  and  _226
REMARK   96  A    between atoms: _225  and  _228
REMARK   97  A    between atoms: _228  and  _229
REMARK   98  A    between atoms: _234  and  _236
REMARK   99  A    between atoms: _236  and  _237
REMARK  100  A    between atoms: _236  and  _239
REMARK  101  A    between atoms: _239  and  _240
REMARK  102  A    between atoms: _243  and  _245
REMARK  103  A    between atoms: _245  and  _246
REMARK  104  A    between atoms: _245  and  _248
REMARK  105  A    between atoms: _248  and  _249
REMARK  106  A    between atoms: _252  and  _254
REMARK  107  A    between atoms: _254  and  _255
REMARK  108  A    between atoms: _257  and  _259
REMARK  109  A    between atoms: _259  and  _260
REMARK  110  A    between atoms: _259  and  _262
REMARK  111  A    between atoms: _262  and  _263
REMARK  112  A    between atoms: _263  and  _264
REMARK  113  A    between atoms: _264  and  _265
REMARK  114  A    between atoms: _274  and  _276
REMARK  115  A    between atoms: _276  and  _277
REMARK  116  A    between atoms: _276  and  _279
REMARK  117  A    between atoms: _279  and  _280
REMARK  118  A    between atoms: _285  and  _287
REMARK  119  A    between atoms: _287  and  _288
REMARK  120  A    between atoms: _287  and  _290
REMARK  121  A    between atoms: _290  and  _291
REMARK  122  A    between atoms: _291  and  _292
REMARK  123  A    between atoms: _292  and  _293
REMARK  124  A    between atoms: _302  and  _304
REMARK  125  A    between atoms: _304  and  _305
REMARK  126  A    between atoms: _304  and  _307
REMARK  127  A    between atoms: _307  and  _308
REMARK  128  A    between atoms: _311  and  _313
REMARK  129  A    between atoms: _313  and  _314
REMARK  130  A    between atoms: _313  and  _316
REMARK  131  A    between atoms: _316  and  _317
REMARK  132  A    between atoms: _320  and  _322
REMARK  133  A    between atoms: _322  and  _323
REMARK  134  A    between atoms: _322  and  _325
REMARK  135  A    between atoms: _325  and  _326
REMARK  136  A    between atoms: _329  and  _331
REMARK  137  A    between atoms: _331  and  _332
REMARK  138  A    between atoms: _331  and  _334
REMARK  139  A    between atoms: _334  and  _335
REMARK  140  A    between atoms: _338  and  _340
REMARK  141  A    between atoms: _340  and  _341
REMARK  142  A    between atoms: _343  and  _345
REMARK  143  A    between atoms: _345  and  _346
REMARK  144  A    between atoms: _349  and  _351
REMARK  145  A    between atoms: _351  and  _352
REMARK  146  A    between atoms: _351  and  _354
REMARK  147  A    between atoms: _354  and  _355
REMARK  148  A    between atoms: _358  and  _360
REMARK  149  A    between atoms: _360  and  _361
REMARK  150  A    between atoms: _360  and  _363
REMARK  151  A    between atoms: _363  and  _364
REMARK  152  A    between atoms: _367  and  _369
REMARK  153  A    between atoms: _369  and  _370
REMARK  154  A    between atoms: _369  and  _372
REMARK  155  A    between atoms: _372  and  _373
REMARK  156  A    between atoms: _376  and  _378
REMARK  157  A    between atoms: _378  and  _379
REMARK  158  A    between atoms: _378  and  _381
REMARK  159  A    between atoms: _381  and  _382
REMARK  160  A    between atoms: _385  and  _387
REMARK  161  A    between atoms: _387  and  _388
REMARK  162  A    between atoms: _387  and  _390
REMARK  163  A    between atoms: _390  and  _391
REMARK  164  A    between atoms: _394  and  _396
REMARK  165  A    between atoms: _396  and  _397
REMARK  166  A    between atoms: _396  and  _399
REMARK  167  A    between atoms: _399  and  _400
REMARK  168  A    between atoms: _400  and  _401
REMARK  169  A    between atoms: _401  and  _402
REMARK  170  A    between atoms: _402  and  _403
REMARK  171  A    between atoms: _407  and  _409
REMARK  172  A    between atoms: _409  and  _410
REMARK  173  A    between atoms: _409  and  _412
REMARK  174  A    between atoms: _412  and  _413
REMARK  175  A    between atoms: _413  and  _414
REMARK  176  A    between atoms: _416  and  _418
REMARK  177  A    between atoms: _418  and  _419
REMARK  178  A    between atoms: _418  and  _421
REMARK  179  A    between atoms: _424  and  _426
REMARK  180  A    between atoms: _426  and  _427
REMARK  181  A    between atoms: _429  and  _431
REMARK  182  A    between atoms: _431  and  _432
REMARK  183  A    between atoms: _434  and  _436
REMARK  184  A    between atoms: _436  and  _437
REMARK  185  A    between atoms: _436  and  _439
REMARK  186  A    between atoms: _439  and  _440
REMARK  187  A    between atoms: _443  and  _445
REMARK  188  A    between atoms: _445  and  _446
REMARK  189  A    between atoms: _448  and  _450
REMARK  190  A    between atoms: _450  and  _451
REMARK  191  A    between atoms: _453  and  _455
REMARK  192  A    between atoms: _455  and  _456
REMARK  193  A    between atoms: _455  and  _458
REMARK  194  A    between atoms: _458  and  _459
REMARK  195  A    between atoms: _465  and  _467
REMARK  196  A    between atoms: _467  and  _468
REMARK  197  A    between atoms: _467  and  _470
REMARK  198  A    between atoms: _470  and  _471
REMARK  199  A    between atoms: _474  and  _476
REMARK  200  A    between atoms: _476  and  _477
REMARK  201  A    between atoms: _476  and  _479
REMARK  202  A    between atoms: _479  and  _480
REMARK  203  A    between atoms: _483  and  _485
REMARK  204  A    between atoms: _485  and  _486
REMARK  205  A    between atoms: _485  and  _488
REMARK  206  A    between atoms: _488  and  _489
REMARK  207  A    between atoms: _493  and  _494
REMARK  208  A    between atoms: _499  and  _501
REMARK  209  A    between atoms: _501  and  _502
REMARK  210  A    between atoms: _501  and  _504
REMARK  211  A    between atoms: _504  and  _505
REMARK  212  A    between atoms: _508  and  _510
REMARK  213  A    between atoms: _510  and  _511
REMARK  214  A    between atoms: _510  and  _513
REMARK  215  A    between atoms: _513  and  _514
REMARK  216  A    between atoms: _519  and  _521
REMARK  217  A    between atoms: _521  and  _522
REMARK  218  A    between atoms: _521  and  _524
REMARK  219  A    between atoms: _524  and  _525
REMARK  220  A    between atoms: _528  and  _530
REMARK  221  A    between atoms: _530  and  _531
REMARK  222  A    between atoms: _530  and  _533
REMARK  223  A    between atoms: _533  and  _534
REMARK  224  A    between atoms: _537  and  _539
REMARK  225  A    between atoms: _539  and  _540
REMARK  226  A    between atoms: _542  and  _544
REMARK  227  A    between atoms: _544  and  _545
REMARK  228  A    between atoms: _544  and  _547
REMARK  229  A    between atoms: _547  and  _548
REMARK  230  A    between atoms: _548  and  _549
REMARK  231  A    between atoms: _549  and  _550
REMARK  232  A    between atoms: _559  and  _561
REMARK  233  A    between atoms: _561  and  _562
REMARK  234  A    between atoms: _561  and  _564
REMARK  235  A    between atoms: _564  and  _565
REMARK                            x       y       z     vdW  Elec       q    Type
REMARK                         _______ _______ _______ _____ _____    ______ ____
ROOT
ATOM      1  O   HOH     1       7.565  15.150  25.202  0.00  0.00    +0.000 OA
ENDROOT
TORSDOF 0
REMARK  Name = ../refined-set-2016/3s43/3s43_pocket.pdb
REMARK  235 active torsions:
REMARK  status: ('A' for Active; 'I' for Inactive)
REMARK    1  A    between atoms: _1  and  _3
REMARK    2  A    between atoms: _3  and  _4
REMARK    3  A    between atoms: _3  and  _6
REMARK    4  A    between atoms: _6  and  _7
REMARK    5  A    between atoms: _7  and  _8
REMARK    6  A    between atoms: _8  and  _9
REMARK    7  A    between atoms: _18  and  _20
REMARK    8  A    between atoms: _20  and  _21
REMARK    9  A    between atoms: _20  and  _23
REMARK   10  A    between atoms: _23  and  _24
REMARK   11  A    between atoms: _27  and  _29
REMARK   12  A    between atoms: _29  and  _30
REMARK   13  A    between atoms: _29  and  _32
REMARK   14  A    between atoms: _32  and  _33
REMARK   15  A    between atoms: _36  and  _38
REMARK   16  A    between atoms: _38  and  _39
REMARK   17  A    between atoms: _38  and  _41
REMARK   18  A    between atoms: _41  and  _42
REMARK   19  A    between atoms: _45  and  _47
REMARK   20  A    between atoms: _47  and  _48
REMARK   21  A    between atoms: _47  and  _50
REMARK   22  A    between atoms: _50  and  _51
REMARK   23  A    between atoms: _54  and  _56
REMARK   24  A    between atoms: _56  and  _57
REMARK   25  A    between atoms: _59  and  _61
REMARK   26  A    between atoms: _61  and  _62
REMARK   27  A    between atoms: _65  and  _67
REMARK   28  A    between atoms: _67  and  _68
REMARK   29  A    between atoms: _67  and  _70
REMARK   30  A    between atoms: _70  and  _71
REMARK   31  A    between atoms: _74  and  _76
REMARK   32  A    between atoms: _76  and  _77
REMARK   33  A    between atoms: _76  and  _79
REMARK   34  A    between atoms: _79  and  _80
REMARK   35  A    between atoms: _83  and  _85
REMARK   36  A    between atoms: _85  and  _86
REMARK   37  A    between atoms: _85  and  _88
REMARK   38  A    between atoms: _88  and  _89
REMARK   39  A    between atoms: _92  and  _94
REMARK   40  A    between atoms: _94  and  _95
REMARK   41  A    between atoms: _94  and  _97
REMARK   42  A    between atoms: _97  and  _98
REMARK   43  A    between atoms: _101  and  _103
REMARK   44  A    between atoms: _103  and  _104
REMARK   45  A    between atoms: _103  and  _106
REMARK   46  A    between atoms: _106  and  _107
REMARK   47  A    between atoms: _107  and  _108
REMARK   48  A    between atoms: _108  and  _109
REMARK   49  A    between atoms: _109  and  _110
REMARK   50  A    between atoms: _114  and  _116
REMARK   51  A    between atoms: _116  and  _117
REMARK   52  A    between atoms: _116  and  _119
REMARK   53  A    between atoms: _119  and  _120
REMARK   54  A    between atoms: _120  and  _121
REMARK   55  A    between atoms: _123  and  _125
REMARK   56  A    between atoms: _125  and  _126
REMARK   57  A    between atoms: _125  and  _128
REMARK   58  A    between atoms: _131  and  _133
REMARK   59  A    between atoms: _133  and  _134
REMARK   60  A    between atoms: _136  and  _138
REMARK   61  A    between atoms: _138  and  _139
REMARK   62  A    between atoms: _141  and  _143
REMARK   63  A    between atoms: _143  and  _144
REMARK   64  A    between atoms: _143  and  _146
REMARK   65  A    between atoms: _146  and  _147
REMARK   66  A    between atoms: _150  and  _152
REMARK   67  A    between atoms: _152  and  _153
REMARK   68  A    between atoms: _155  and  _157
REMARK   69  A    between atoms: _157  and  _158
REMARK   70  A    between atoms: _160  and  _162
REMARK   71  A    between atoms: _162  and  _163
REMARK   72  A    between atoms: _162  and  _165
REMARK   73  A    between atoms: _165  and  _166
REMARK   74  A    between atoms: _172  and  _174
REMARK   75  A    between atoms: _174  and  _175
REMARK   76  A    between atoms: _174  and  _177
REMARK   77  A    between atoms: _177  and  _178
REMARK   78  A    between atoms: _181  and  _183
REMARK   79  A    between atoms: _183  and  _184
REMARK   80  A    between atoms: _183  and  _186
REMARK   81  A    between atoms: _189  and  _191
REMARK   82  A    between atoms: _191  and  _192
REMARK   83  A    between atoms: _191  and  _194
REMARK   84  A    between atoms: _194  and  _195
REMARK   85  A    between atoms: _198  and  _200
REMARK   86  A    between atoms: _200  and  _201
REMARK   87  A    between atoms: _200  and  _203
REMARK   88  A    between atoms: _203  and  _204
REMARK   89  A    between atoms: _208  and  _209
REMARK   90  A    between atoms: _214  and  _216
REMARK   91  A    between atoms: _216  and  _217
REMARK   92  A    between atoms: _216  and  _219
REMARK   93  A    between atoms: _219  and  _220
REMARK   94  A    between atoms: _223  and  _225
REMARK   95  A    between atoms: _225  and  _226
REMARK   96  A    between atoms: _225  and  _228
REMARK   97  A    between atoms: _228  and  _229
REMARK   98  A    between atoms: _234  and  _236
REMARK   99  A    between atoms: _236  and  _237
REMARK  100  A    between atoms: _236  and  _239
REMARK  101  A    between atoms: _239  and  _240
REMARK  102  A    between atoms: _243  and  _245
REMARK  103  A    between atoms: _245  and  _246
REMARK  104  A    between atoms: _245  and  _248
REMARK  105  A    between atoms: _248  and  _249
REMARK  106  A    between atoms: _252  and  _254
REMARK  107  A    between atoms: _254  and  _255
REMARK  108  A    between atoms: _257  and  _259
REMARK  109  A    between atoms: _259  and  _260
REMARK  110  A    between atoms: _259  and  _262
REMARK  111  A    between atoms: _262  and  _263
REMARK  112  A    between atoms: _263  and  _264
REMARK  113  A    between atoms: _264  and  _265
REMARK  114  A    between atoms: _274  and  _276
REMARK  115  A    between atoms: _276  and  _277
REMARK  116  A    between atoms: _276  and  _279
REMARK  117  A    between atoms: _279  and  _280
REMARK  118  A    between atoms: _285  and  _287
REMARK  119  A    between atoms: _287  and  _288
REMARK  120  A    between atoms: _287  and  _290
REMARK  121  A    between atoms: _290  and  _291
REMARK  122  A    between atoms: _291  and  _292
REMARK  123  A    between atoms: _292  and  _293
REMARK  124  A    between atoms: _302  and  _304
REMARK  125  A    between atoms: _304  and  _305
REMARK  126  A    between atoms: _304  and  _307
REMARK  127  A    between atoms: _307  and  _308
REMARK  128  A    between atoms: _311  and  _313
REMARK  129  A    between atoms: _313  and  _314
REMARK  130  A    between atoms: _313  and  _316
REMARK  131  A    between atoms: _316  and  _317
REMARK  132  A    between atoms: _320  and  _322
REMARK  133  A    between atoms: _322  and  _323
REMARK  134  A    between atoms: _322  and  _325
REMARK  135  A    between atoms: _325  and  _326
REMARK  136  A    between atoms: _329  and  _331
REMARK  137  A    between atoms: _331  and  _332
REMARK  138  A    between atoms: _331  and  _334
REMARK  139  A    between atoms: _334  and  _335
REMARK  140  A    between atoms: _338  and  _340
REMARK  141  A    between atoms: _340  and  _341
REMARK  142  A    between atoms: _343  and  _345
REMARK  143  A    between atoms: _345  and  _346
REMARK  144  A    between atoms: _349  and  _351
REMARK  145  A    between atoms: _351  and  _352
REMARK  146  A    between atoms: _351  and  _354
REMARK  147  A    between atoms: _354  and  _355
REMARK  148  A    between atoms: _358  and  _360
REMARK  149  A    between atoms: _360  and  _361
REMARK  150  A    between atoms: _360  and  _363
REMARK  151  A    between atoms: _363  and  _364
REMARK  152  A    between atoms: _367  and  _369
REMARK  153  A    between atoms: _369  and  _370
REMARK  154  A    between atoms: _369  and  _372
REMARK  155  A    between atoms: _372  and  _373
REMARK  156  A    between atoms: _376  and  _378
REMARK  157  A    between atoms: _378  and  _379
REMARK  158  A    between atoms: _378  and  _381
REMARK  159  A    between atoms: _381  and  _382
REMARK  160  A    between atoms: _385  and  _387
REMARK  161  A    between atoms: _387  and  _388
REMARK  162  A    between atoms: _387  and  _390
REMARK  163  A    between atoms: _390  and  _391
REMARK  164  A    between atoms: _394  and  _396
REMARK  165  A    between atoms: _396  and  _397
REMARK  166  A    between atoms: _396  and  _399
REMARK  167  A    between atoms: _399  and  _400
REMARK  168  A    between atoms: _400  and  _401
REMARK  169  A    between atoms: _401  and  _402
REMARK  170  A    between atoms: _402  and  _403
REMARK  171  A    between atoms: _407  and  _409
REMARK  172  A    between atoms: _409  and  _410
REMARK  173  A    between atoms: _409  and  _412
REMARK  174  A    between atoms: _412  and  _413
REMARK  175  A    between atoms: _413  and  _414
REMARK  176  A    between atoms: _416  and  _418
REMARK  177  A    between atoms: _418  and  _419
REMARK  178  A    between atoms: _418  and  _421
REMARK  179  A    between atoms: _424  and  _426
REMARK  180  A    between atoms: _426  and  _427
REMARK  181  A    between atoms: _429  and  _431
REMARK  182  A    between atoms: _431  and  _432
REMARK  183  A    between atoms: _434  and  _436
REMARK  184  A    between atoms: _436  and  _437
REMARK  185  A    between atoms: _436  and  _439
REMARK  186  A    between atoms: _439  and  _440
REMARK  187  A    between atoms: _443  and  _445
REMARK  188  A    between atoms: _445  and  _446
REMARK  189  A    between atoms: _448  and  _450
REMARK  190  A    between atoms: _450  and  _451
REMARK  191  A    between atoms: _453  and  _455
REMARK  192  A    between atoms: _455  and  _456
REMARK  193  A    between atoms: _455  and  _458
REMARK  194  A    between atoms: _458  and  _459
REMARK  195  A    between atoms: _465  and  _467
REMARK  196  A    between atoms: _467  and  _468
REMARK  197  A    between atoms: _467  and  _470
REMARK  198  A    between atoms: _470  and  _471
REMARK  199  A    between atoms: _474  and  _476
REMARK  200  A    between atoms: _476  and  _477
REMARK  201  A    between atoms: _476  and  _479
REMARK  202  A    between atoms: _479  and  _480
REMARK  203  A    between atoms: _483  and  _485
REMARK  204  A    between atoms: _485  and  _486
REMARK  205  A    between atoms: _485  and  _488
REMARK  206  A    between atoms: _488  and  _489
REMARK  207  A    between atoms: _493  and  _494
REMARK  208  A    between atoms: _499  and  _501
REMARK  209  A    between atoms: _501  and  _502
REMARK  210  A    between atoms: _501  and  _504
REMARK  211  A    between atoms: _504  and  _505
REMARK  212  A    between atoms: _508  and  _510
REMARK  213  A    between atoms: _510  and  _511
REMARK  214  A    between atoms: _510  and  _513
REMARK  215  A    between atoms: _513  and  _514
REMARK  216  A    between atoms: _519  and  _521
REMARK  217  A    between atoms: _521  and  _522
REMARK  218  A    between atoms: _521  and  _524
REMARK  219  A    between atoms: _524  and  _525
REMARK  220  A    between atoms: _528  and  _530
REMARK  221  A    between atoms: _530  and  _531
REMARK  222  A    between atoms: _530  and  _533
REMARK  223  A    between atoms: _533  and  _534
REMARK  224  A    between atoms: _537  and  _539
REMARK  225  A    between atoms: _539  and  _540
REMARK  226  A    between atoms: _542  and  _544
REMARK  227  A    between atoms: _544  and  _545
REMARK  228  A    between atoms: _544  and  _547
REMARK  229  A    between atoms: _547  and  _548
REMARK  230  A    between atoms: _548  and  _549
REMARK  231  A    between atoms: _549  and  _550
REMARK  232  A    between atoms: _559  and  _561
REMARK  233  A    between atoms: _561  and  _562
REMARK  234  A    between atoms: _561  and  _564
REMARK  235  A    between atoms: _564  and  _565
REMARK                            x       y       z     vdW  Elec       q    Type
REMARK                         _______ _______ _______ _____ _____    ______ ____
ROOT
ATOM      1  O   HOH     1      10.939  14.948  17.320  0.00  0.00    +0.000 OA
ENDROOT
TORSDOF 0
REMARK  Name = ../refined-set-2016/3s43/3s43_pocket.pdb
REMARK  235 active torsions:
REMARK  status: ('A' for Active; 'I' for Inactive)
REMARK    1  A    between atoms: _1  and  _3
REMARK    2  A    between atoms: _3  and  _4
REMARK    3  A    between atoms: _3  and  _6
REMARK    4  A    between atoms: _6  and  _7
REMARK    5  A    between atoms: _7  and  _8
REMARK    6  A    between atoms: _8  and  _9
REMARK    7  A    between atoms: _18  and  _20
REMARK    8  A    between atoms: _20  and  _21
REMARK    9  A    between atoms: _20  and  _23
REMARK   10  A    between atoms: _23  and  _24
REMARK   11  A    between atoms: _27  and  _29
REMARK   12  A    between atoms: _29  and  _30
REMARK   13  A    between atoms: _29  and  _32
REMARK   14  A    between atoms: _32  and  _33
REMARK   15  A    between atoms: _36  and  _38
REMARK   16  A    between atoms: _38  and  _39
REMARK   17  A    between atoms: _38  and  _41
REMARK   18  A    between atoms: _41  and  _42
REMARK   19  A    between atoms: _45  and  _47
REMARK   20  A    between atoms: _47  and  _48
REMARK   21  A    between atoms: _47  and  _50
REMARK   22  A    between atoms: _50  and  _51
REMARK   23  A    between atoms: _54  and  _56
REMARK   24  A    between atoms: _56  and  _57
REMARK   25  A    between atoms: _59  and  _61
REMARK   26  A    between atoms: _61  and  _62
REMARK   27  A    between atoms: _65  and  _67
REMARK   28  A    between atoms: _67  and  _68
REMARK   29  A    between atoms: _67  and  _70
REMARK   30  A    between atoms: _70  and  _71
REMARK   31  A    between atoms: _74  and  _76
REMARK   32  A    between atoms: _76  and  _77
REMARK   33  A    between atoms: _76  and  _79
REMARK   34  A    between atoms: _79  and  _80
REMARK   35  A    between atoms: _83  and  _85
REMARK   36  A    between atoms: _85  and  _86
REMARK   37  A    between atoms: _85  and  _88
REMARK   38  A    between atoms: _88  and  _89
REMARK   39  A    between atoms: _92  and  _94
REMARK   40  A    between atoms: _94  and  _95
REMARK   41  A    between atoms: _94  and  _97
REMARK   42  A    between atoms: _97  and  _98
REMARK   43  A    between atoms: _101  and  _103
REMARK   44  A    between atoms: _103  and  _104
REMARK   45  A    between atoms: _103  and  _106
REMARK   46  A    between atoms: _106  and  _107
REMARK   47  A    between atoms: _107  and  _108
REMARK   48  A    between atoms: _108  and  _109
REMARK   49  A    between atoms: _109  and  _110
REMARK   50  A    between atoms: _114  and  _116
REMARK   51  A    between atoms: _116  and  _117
REMARK   52  A    between atoms: _116  and  _119
REMARK   53  A    between atoms: _119  and  _120
REMARK   54  A    between atoms: _120  and  _121
REMARK   55  A    between atoms: _123  and  _125
REMARK   56  A    between atoms: _125  and  _126
REMARK   57  A    between atoms: _125  and  _128
REMARK   58  A    between atoms: _131  and  _133
REMARK   59  A    between atoms: _133  and  _134
REMARK   60  A    between atoms: _136  and  _138
REMARK   61  A    between atoms: _138  and  _139
REMARK   62  A    between atoms: _141  and  _143
REMARK   63  A    between atoms: _143  and  _144
REMARK   64  A    between atoms: _143  and  _146
REMARK   65  A    between atoms: _146  and  _147
REMARK   66  A    between atoms: _150  and  _152
REMARK   67  A    between atoms: _152  and  _153
REMARK   68  A    between atoms: _155  and  _157
REMARK   69  A    between atoms: _157  and  _158
REMARK   70  A    between atoms: _160  and  _162
REMARK   71  A    between atoms: _162  and  _163
REMARK   72  A    between atoms: _162  and  _165
REMARK   73  A    between atoms: _165  and  _166
REMARK   74  A    between atoms: _172  and  _174
REMARK   75  A    between atoms: _174  and  _175
REMARK   76  A    between atoms: _174  and  _177
REMARK   77  A    between atoms: _177  and  _178
REMARK   78  A    between atoms: _181  and  _183
REMARK   79  A    between atoms: _183  and  _184
REMARK   80  A    between atoms: _183  and  _186
REMARK   81  A    between atoms: _189  and  _191
REMARK   82  A    between atoms: _191  and  _192
REMARK   83  A    between atoms: _191  and  _194
REMARK   84  A    between atoms: _194  and  _195
REMARK   85  A    between atoms: _198  and  _200
REMARK   86  A    between atoms: _200  and  _201
REMARK   87  A    between atoms: _200  and  _203
REMARK   88  A    between atoms: _203  and  _204
REMARK   89  A    between atoms: _208  and  _209
REMARK   90  A    between atoms: _214  and  _216
REMARK   91  A    between atoms: _216  and  _217
REMARK   92  A    between atoms: _216  and  _219
REMARK   93  A    between atoms: _219  and  _220
REMARK   94  A    between atoms: _223  and  _225
REMARK   95  A    between atoms: _225  and  _226
REMARK   96  A    between atoms: _225  and  _228
REMARK   97  A    between atoms: _228  and  _229
REMARK   98  A    between atoms: _234  and  _236
REMARK   99  A    between atoms: _236  and  _237
REMARK  100  A    between atoms: _236  and  _239
REMARK  101  A    between atoms: _239  and  _240
REMARK  102  A    between atoms: _243  and  _245
REMARK  103  A    between atoms: _245  and  _246
REMARK  104  A    between atoms: _245  and  _248
REMARK  105  A    between atoms: _248  and  _249
REMARK  106  A    between atoms: _252  and  _254
REMARK  107  A    between atoms: _254  and  _255
REMARK  108  A    between atoms: _257  and  _259
REMARK  109  A    between atoms: _259  and  _260
REMARK  110  A    between atoms: _259  and  _262
REMARK  111  A    between atoms: _262  and  _263
REMARK  112  A    between atoms: _263  and  _264
REMARK  113  A    between atoms: _264  and  _265
REMARK  114  A    between atoms: _274  and  _276
REMARK  115  A    between atoms: _276  and  _277
REMARK  116  A    between atoms: _276  and  _279
REMARK  117  A    between atoms: _279  and  _280
REMARK  118  A    between atoms: _285  and  _287
REMARK  119  A    between atoms: _287  and  _288
REMARK  120  A    between atoms: _287  and  _290
REMARK  121  A    between atoms: _290  and  _291
REMARK  122  A    between atoms: _291  and  _292
REMARK  123  A    between atoms: _292  and  _293
REMARK  124  A    between atoms: _302  and  _304
REMARK  125  A    between atoms: _304  and  _305
REMARK  126  A    between atoms: _304  and  _307
REMARK  127  A    between atoms: _307  and  _308
REMARK  128  A    between atoms: _311  and  _313
REMARK  129  A    between atoms: _313  and  _314
REMARK  130  A    between atoms: _313  and  _316
REMARK  131  A    between atoms: _316  and  _317
REMARK  132  A    between atoms: _320  and  _322
REMARK  133  A    between atoms: _322  and  _323
REMARK  134  A    between atoms: _322  and  _325
REMARK  135  A    between atoms: _325  and  _326
REMARK  136  A    between atoms: _329  and  _331
REMARK  137  A    between atoms: _331  and  _332
REMARK  138  A    between atoms: _331  and  _334
REMARK  139  A    between atoms: _334  and  _335
REMARK  140  A    between atoms: _338  and  _340
REMARK  141  A    between atoms: _340  and  _341
REMARK  142  A    between atoms: _343  and  _345
REMARK  143  A    between atoms: _345  and  _346
REMARK  144  A    between atoms: _349  and  _351
REMARK  145  A    between atoms: _351  and  _352
REMARK  146  A    between atoms: _351  and  _354
REMARK  147  A    between atoms: _354  and  _355
REMARK  148  A    between atoms: _358  and  _360
REMARK  149  A    between atoms: _360  and  _361
REMARK  150  A    between atoms: _360  and  _363
REMARK  151  A    between atoms: _363  and  _364
REMARK  152  A    between atoms: _367  and  _369
REMARK  153  A    between atoms: _369  and  _370
REMARK  154  A    between atoms: _369  and  _372
REMARK  155  A    between atoms: _372  and  _373
REMARK  156  A    between atoms: _376  and  _378
REMARK  157  A    between atoms: _378  and  _379
REMARK  158  A    between atoms: _378  and  _381
REMARK  159  A    between atoms: _381  and  _382
REMARK  160  A    between atoms: _385  and  _387
REMARK  161  A    between atoms: _387  and  _388
REMARK  162  A    between atoms: _387  and  _390
REMARK  163  A    between atoms: _390  and  _391
REMARK  164  A    between atoms: _394  and  _396
REMARK  165  A    between atoms: _396  and  _397
REMARK  166  A    between atoms: _396  and  _399
REMARK  167  A    between atoms: _399  and  _400
REMARK  168  A    between atoms: _400  and  _401
REMARK  169  A    between atoms: _401  and  _402
REMARK  170  A    between atoms: _402  and  _403
REMARK  171  A    between atoms: _407  and  _409
REMARK  172  A    between atoms: _409  and  _410
REMARK  173  A    between atoms: _409  and  _412
REMARK  174  A    between atoms: _412  and  _413
REMARK  175  A    between atoms: _413  and  _414
REMARK  176  A    between atoms: _416  and  _418
REMARK  177  A    between atoms: _418  and  _419
REMARK  178  A    between atoms: _418  and  _421
REMARK  179  A    between atoms: _424  and  _426
REMARK  180  A    between atoms: _426  and  _427
REMARK  181  A    between atoms: _429  and  _431
REMARK  182  A    between atoms: _431  and  _432
REMARK  183  A    between atoms: _434  and  _436
REMARK  184  A    between atoms: _436  and  _437
REMARK  185  A    between atoms: _436  and  _439
REMARK  186  A    between atoms: _439  and  _440
REMARK  187  A    between atoms: _443  and  _445
REMARK  188  A    between atoms: _445  and  _446
REMARK  189  A    between atoms: _448  and  _450
REMARK  190  A    between atoms: _450  and  _451
REMARK  191  A    between atoms: _453  and  _455
REMARK  192  A    between atoms: _455  and  _456
REMARK  193  A    between atoms: _455  and  _458
REMARK  194  A    between atoms: _458  and  _459
REMARK  195  A    between atoms: _465  and  _467
REMARK  196  A    between atoms: _467  and  _468
REMARK  197  A    between atoms: _467  and  _470
REMARK  198  A    between atoms: _470  and  _471
REMARK  199  A    between atoms: _474  and  _476
REMARK  200  A    between atoms: _476  and  _477
REMARK  201  A    between atoms: _476  and  _479
REMARK  202  A    between atoms: _479  and  _480
REMARK  203  A    between atoms: _483  and  _485
REMARK  204  A    between atoms: _485  and  _486
REMARK  205  A    between atoms: _485  and  _488
REMARK  206  A    between atoms: _488  and  _489
REMARK  207  A    between atoms: _493  and  _494
REMARK  208  A    between atoms: _499  and  _501
REMARK  209  A    between atoms: _501  and  _502
REMARK  210  A    between atoms: _501  and  _504
REMARK  211  A    between atoms: _504  and  _505
REMARK  212  A    between atoms: _508  and  _510
REMARK  213  A    between atoms: _510  and  _511
REMARK  214  A    between atoms: _510  and  _513
REMARK  215  A    between atoms: _513  and  _514
REMARK  216  A    between atoms: _519  and  _521
REMARK  217  A    between atoms: _521  and  _522
REMARK  218  A    between atoms: _521  and  _524
REMARK  219  A    between atoms: _524  and  _525
REMARK  220  A    between atoms: _528  and  _530
REMARK  221  A    between atoms: _530  and  _531
REMARK  222  A    between atoms: _530  and  _533
REMARK  223  A    between atoms: _533  and  _534
REMARK  224  A    between atoms: _537  and  _539
REMARK  225  A    between atoms: _539  and  _540
REMARK  226  A    between atoms: _542  and  _544
REMARK  227  A    between atoms: _544  and  _545
REMARK  228  A    between atoms: _544  and  _547
REMARK  229  A    between atoms: _547  and  _548
REMARK  230  A    between atoms: _548  and  _549
REMARK  231  A    between atoms: _549  and  _550
REMARK  232  A    between atoms: _559  and  _561
REMARK  233  A    between atoms: _561  and  _562
REMARK  234  A    between atoms: _561  and  _564
REMARK  235  A    between atoms: _564  and  _565
REMARK                            x       y       z     vdW  Elec       q    Type
REMARK                         _______ _______ _______ _____ _____    ______ ____
ROOT
ATOM      1  O   HOH     1      19.447  17.669   8.632  0.00  0.00    +0.000 OA
ENDROOT
TORSDOF 0
