REMARK  Name = ../refined-set-2016/2xye/2xye_pocket.pdb
REMARK  233 active torsions:
REMARK  status: ('A' for Active; 'I' for Inactive)
REMARK    1  A    between atoms: _1  and  _3
REMARK    2  A    between atoms: _3  and  _4
REMARK    3  A    between atoms: _3  and  _6
REMARK    4  A    between atoms: _6  and  _7
REMARK    5  A    between atoms: _7  and  _8
REMARK    6  A    between atoms: _8  and  _9
REMARK    7  A    between atoms: _18  and  _20
REMARK    8  A    between atoms: _20  and  _21
REMARK    9  A    between atoms: _20  and  _23
REMARK   10  A    between atoms: _23  and  _24
REMARK   11  A    between atoms: _27  and  _29
REMARK   12  A    between atoms: _29  and  _30
REMARK   13  A    between atoms: _29  and  _32
REMARK   14  A    between atoms: _32  and  _33
REMARK   15  A    between atoms: _36  and  _38
REMARK   16  A    between atoms: _38  and  _39
REMARK   17  A    between atoms: _38  and  _41
REMARK   18  A    between atoms: _41  and  _42
REMARK   19  A    between atoms: _45  and  _47
REMARK   20  A    between atoms: _47  and  _48
REMARK   21  A    between atoms: _47  and  _50
REMARK   22  A    between atoms: _50  and  _51
REMARK   23  A    between atoms: _54  and  _56
REMARK   24  A    between atoms: _56  and  _57
REMARK   25  A    between atoms: _59  and  _61
REMARK   26  A    between atoms: _61  and  _62
REMARK   27  A    between atoms: _65  and  _67
REMARK   28  A    between atoms: _67  and  _68
REMARK   29  A    between atoms: _67  and  _70
REMARK   30  A    between atoms: _70  and  _71
REMARK   31  A    between atoms: _74  and  _76
REMARK   32  A    between atoms: _76  and  _77
REMARK   33  A    between atoms: _76  and  _79
REMARK   34  A    between atoms: _79  and  _80
REMARK   35  A    between atoms: _83  and  _85
REMARK   36  A    between atoms: _85  and  _86
REMARK   37  A    between atoms: _85  and  _88
REMARK   38  A    between atoms: _88  and  _89
REMARK   39  A    between atoms: _92  and  _94
REMARK   40  A    between atoms: _94  and  _95
REMARK   41  A    between atoms: _94  and  _97
REMARK   42  A    between atoms: _100  and  _102
REMARK   43  A    between atoms: _102  and  _103
REMARK   44  A    between atoms: _102  and  _105
REMARK   45  A    between atoms: _105  and  _106
REMARK   46  A    between atoms: _106  and  _107
REMARK   47  A    between atoms: _107  and  _108
REMARK   48  A    between atoms: _108  and  _109
REMARK   49  A    between atoms: _113  and  _115
REMARK   50  A    between atoms: _115  and  _116
REMARK   51  A    between atoms: _115  and  _118
REMARK   52  A    between atoms: _118  and  _119
REMARK   53  A    between atoms: _119  and  _120
REMARK   54  A    between atoms: _122  and  _124
REMARK   55  A    between atoms: _124  and  _125
REMARK   56  A    between atoms: _124  and  _127
REMARK   57  A    between atoms: _127  and  _128
REMARK   58  A    between atoms: _131  and  _133
REMARK   59  A    between atoms: _133  and  _134
REMARK   60  A    between atoms: _136  and  _138
REMARK   61  A    between atoms: _138  and  _139
REMARK   62  A    between atoms: _141  and  _143
REMARK   63  A    between atoms: _143  and  _144
REMARK   64  A    between atoms: _143  and  _146
REMARK   65  A    between atoms: _146  and  _147
REMARK   66  A    between atoms: _150  and  _152
REMARK   67  A    between atoms: _152  and  _153
REMARK   68  A    between atoms: _155  and  _157
REMARK   69  A    between atoms: _157  and  _158
REMARK   70  A    between atoms: _160  and  _162
REMARK   71  A    between atoms: _162  and  _163
REMARK   72  A    between atoms: _162  and  _165
REMARK   73  A    between atoms: _165  and  _166
REMARK   74  A    between atoms: _172  and  _174
REMARK   75  A    between atoms: _174  and  _175
REMARK   76  A    between atoms: _174  and  _177
REMARK   77  A    between atoms: _177  and  _178
REMARK   78  A    between atoms: _181  and  _183
REMARK   79  A    between atoms: _183  and  _184
REMARK   80  A    between atoms: _183  and  _186
REMARK   81  A    between atoms: _189  and  _191
REMARK   82  A    between atoms: _191  and  _192
REMARK   83  A    between atoms: _191  and  _194
REMARK   84  A    between atoms: _194  and  _195
REMARK   85  A    between atoms: _198  and  _200
REMARK   86  A    between atoms: _200  and  _201
REMARK   87  A    between atoms: _200  and  _203
REMARK   88  A    between atoms: _203  and  _204
REMARK   89  A    between atoms: _208  and  _209
REMARK   90  A    between atoms: _214  and  _216
REMARK   91  A    between atoms: _216  and  _217
REMARK   92  A    between atoms: _216  and  _219
REMARK   93  A    between atoms: _219  and  _220
REMARK   94  A    between atoms: _223  and  _225
REMARK   95  A    between atoms: _225  and  _226
REMARK   96  A    between atoms: _225  and  _228
REMARK   97  A    between atoms: _228  and  _229
REMARK   98  A    between atoms: _234  and  _236
REMARK   99  A    between atoms: _236  and  _237
REMARK  100  A    between atoms: _236  and  _239
REMARK  101  A    between atoms: _242  and  _244
REMARK  102  A    between atoms: _244  and  _245
REMARK  103  A    between atoms: _244  and  _247
REMARK  104  A    between atoms: _247  and  _248
REMARK  105  A    between atoms: _251  and  _253
REMARK  106  A    between atoms: _253  and  _254
REMARK  107  A    between atoms: _256  and  _258
REMARK  108  A    between atoms: _258  and  _259
REMARK  109  A    between atoms: _258  and  _261
REMARK  110  A    between atoms: _261  and  _262
REMARK  111  A    between atoms: _262  and  _263
REMARK  112  A    between atoms: _263  and  _264
REMARK  113  A    between atoms: _273  and  _275
REMARK  114  A    between atoms: _275  and  _276
REMARK  115  A    between atoms: _275  and  _278
REMARK  116  A    between atoms: _278  and  _279
REMARK  117  A    between atoms: _284  and  _286
REMARK  118  A    between atoms: _286  and  _287
REMARK  119  A    between atoms: _286  and  _289
REMARK  120  A    between atoms: _289  and  _290
REMARK  121  A    between atoms: _290  and  _291
REMARK  122  A    between atoms: _291  and  _292
REMARK  123  A    between atoms: _302  and  _303
REMARK  124  A    between atoms: _308  and  _310
REMARK  125  A    between atoms: _310  and  _311
REMARK  126  A    between atoms: _310  and  _313
REMARK  127  A    between atoms: _313  and  _314
REMARK  128  A    between atoms: _317  and  _319
REMARK  129  A    between atoms: _319  and  _320
REMARK  130  A    between atoms: _319  and  _322
REMARK  131  A    between atoms: _322  and  _323
REMARK  132  A    between atoms: _326  and  _328
REMARK  133  A    between atoms: _328  and  _329
REMARK  134  A    between atoms: _328  and  _331
REMARK  135  A    between atoms: _331  and  _332
REMARK  136  A    between atoms: _335  and  _337
REMARK  137  A    between atoms: _337  and  _338
REMARK  138  A    between atoms: _337  and  _340
REMARK  139  A    between atoms: _340  and  _341
REMARK  140  A    between atoms: _344  and  _346
REMARK  141  A    between atoms: _346  and  _347
REMARK  142  A    between atoms: _346  and  _349
REMARK  143  A    between atoms: _349  and  _350
REMARK  144  A    between atoms: _353  and  _355
REMARK  145  A    between atoms: _355  and  _356
REMARK  146  A    between atoms: _358  and  _360
REMARK  147  A    between atoms: _360  and  _361
REMARK  148  A    between atoms: _364  and  _366
REMARK  149  A    between atoms: _366  and  _367
REMARK  150  A    between atoms: _366  and  _369
REMARK  151  A    between atoms: _369  and  _370
REMARK  152  A    between atoms: _373  and  _375
REMARK  153  A    between atoms: _375  and  _376
REMARK  154  A    between atoms: _375  and  _378
REMARK  155  A    between atoms: _378  and  _379
REMARK  156  A    between atoms: _382  and  _384
REMARK  157  A    between atoms: _384  and  _385
REMARK  158  A    between atoms: _384  and  _387
REMARK  159  A    between atoms: _387  and  _388
REMARK  160  A    between atoms: _391  and  _393
REMARK  161  A    between atoms: _393  and  _394
REMARK  162  A    between atoms: _393  and  _396
REMARK  163  A    between atoms: _399  and  _401
REMARK  164  A    between atoms: _401  and  _402
REMARK  165  A    between atoms: _401  and  _404
REMARK  166  A    between atoms: _404  and  _405
REMARK  167  A    between atoms: _405  and  _406
REMARK  168  A    between atoms: _406  and  _407
REMARK  169  A    between atoms: _407  and  _408
REMARK  170  A    between atoms: _412  and  _414
REMARK  171  A    between atoms: _414  and  _415
REMARK  172  A    between atoms: _414  and  _417
REMARK  173  A    between atoms: _417  and  _418
REMARK  174  A    between atoms: _418  and  _419
REMARK  175  A    between atoms: _421  and  _423
REMARK  176  A    between atoms: _423  and  _424
REMARK  177  A    between atoms: _423  and  _426
REMARK  178  A    between atoms: _426  and  _427
REMARK  179  A    between atoms: _430  and  _432
REMARK  180  A    between atoms: _432  and  _433
REMARK  181  A    between atoms: _435  and  _437
REMARK  182  A    between atoms: _437  and  _438
REMARK  183  A    between atoms: _440  and  _442
REMARK  184  A    between atoms: _442  and  _443
REMARK  185  A    between atoms: _442  and  _445
REMARK  186  A    between atoms: _445  and  _446
REMARK  187  A    between atoms: _449  and  _451
REMARK  188  A    between atoms: _451  and  _452
REMARK  189  A    between atoms: _454  and  _456
REMARK  190  A    between atoms: _456  and  _457
REMARK  191  A    between atoms: _459  and  _461
REMARK  192  A    between atoms: _461  and  _462
REMARK  193  A    between atoms: _461  and  _464
REMARK  194  A    between atoms: _464  and  _465
REMARK  195  A    between atoms: _471  and  _473
REMARK  196  A    between atoms: _473  and  _474
REMARK  197  A    between atoms: _473  and  _476
REMARK  198  A    between atoms: _476  and  _477
REMARK  199  A    between atoms: _480  and  _482
REMARK  200  A    between atoms: _482  and  _483
REMARK  201  A    between atoms: _482  and  _485
REMARK  202  A    between atoms: _488  and  _490
REMARK  203  A    between atoms: _490  and  _491
REMARK  204  A    between atoms: _490  and  _493
REMARK  205  A    between atoms: _493  and  _494
REMARK  206  A    between atoms: _497  and  _499
REMARK  207  A    between atoms: _499  and  _500
REMARK  208  A    between atoms: _499  and  _502
REMARK  209  A    between atoms: _502  and  _503
REMARK  210  A    between atoms: _507  and  _508
REMARK  211  A    between atoms: _513  and  _515
REMARK  212  A    between atoms: _515  and  _516
REMARK  213  A    between atoms: _515  and  _518
REMARK  214  A    between atoms: _518  and  _519
REMARK  215  A    between atoms: _522  and  _524
REMARK  216  A    between atoms: _524  and  _525
REMARK  217  A    between atoms: _524  and  _527
REMARK  218  A    between atoms: _527  and  _528
REMARK  219  A    between atoms: _533  and  _535
REMARK  220  A    between atoms: _535  and  _536
REMARK  221  A    between atoms: _535  and  _538
REMARK  222  A    between atoms: _541  and  _543
REMARK  223  A    between atoms: _543  and  _544
REMARK  224  A    between atoms: _543  and  _546
REMARK  225  A    between atoms: _546  and  _547
REMARK  226  A    between atoms: _550  and  _552
REMARK  227  A    between atoms: _552  and  _553
REMARK  228  A    between atoms: _555  and  _557
REMARK  229  A    between atoms: _557  and  _558
REMARK  230  A    between atoms: _557  and  _560
REMARK  231  A    between atoms: _560  and  _561
REMARK  232  A    between atoms: _561  and  _562
REMARK  233  A    between atoms: _562  and  _563
REMARK                            x       y       z     vdW  Elec       q    Type
REMARK                         _______ _______ _______ _____ _____    ______ ____
ROOT
ATOM      1  NE  ARG A   1      23.638  20.378   7.728  0.00  0.00    -0.265 N 
ATOM      2  CZ  ARG A   1      23.552  19.328   8.539  0.00  0.00    +0.342 C 
ATOM      3  NH2 ARG A   1      23.918  19.436   9.809  0.00  0.00    -0.292 N 
ATOM      4 HH21 ARG A   1      23.850  18.613  10.442  0.00  0.00    +0.255 HD
ATOM      5 HH22 ARG A   1      24.273  20.343  10.172  0.00  0.00    +0.255 HD
ATOM      6  NH1 ARG A   1      23.100  18.163   8.077  0.00  0.00    -0.292 N 
ATOM      7 HH11 ARG A   1      23.033  17.342   8.712  0.00  0.00    +0.255 HD
ATOM      8 HH12 ARG A   1      22.814  18.074   7.081  0.00  0.00    +0.255 HD
ATOM      9  HE  ARG A   1      23.345  20.252   6.738  0.00  0.00    +0.259 HD
ENDROOT
BRANCH   1  10
ATOM     10  CD  ARG A   1      24.115  21.691   8.134  0.00  0.00    +0.174 C 
BRANCH  10  11
ATOM     11  CG  ARG A   1      24.431  22.579   6.935  0.00  0.00    +0.045 C 
BRANCH  11  12
ATOM     12  CB  ARG A   1      24.823  23.979   7.367  0.00  0.00    +0.029 C 
BRANCH  12  13
ATOM     13  CA  ARG A   1      25.395  24.834   6.236  0.00  0.00    +0.133 C 
BRANCH  13  14
ATOM     14  N   ARG A   1      26.646  24.261   5.757  0.00  0.00    -0.239 NA
ATOM     15  H   ARG A   1      27.021  23.402   6.208  0.00  0.00    +0.142 HD
ENDBRANCH  13  14
BRANCH  13  16
ATOM     16  C   ARG A   1      25.711  26.238   6.742  0.00  0.00    +0.224 C 
ATOM     17  O   ARG A   1      26.707  26.446   7.437  0.00  0.00    -0.287 OA
ENDBRANCH  13  16
ENDBRANCH  12  13
ENDBRANCH  11  12
ENDBRANCH  10  11
ENDBRANCH   1  10
TORSDOF 6
REMARK  Name = ../refined-set-2016/2xye/2xye_pocket.pdb
REMARK  233 active torsions:
REMARK  status: ('A' for Active; 'I' for Inactive)
REMARK    1  A    between atoms: _1  and  _3
REMARK    2  A    between atoms: _3  and  _4
REMARK    3  A    between atoms: _3  and  _6
REMARK    4  A    between atoms: _6  and  _7
REMARK    5  A    between atoms: _7  and  _8
REMARK    6  A    between atoms: _8  and  _9
REMARK    7  A    between atoms: _18  and  _20
REMARK    8  A    between atoms: _20  and  _21
REMARK    9  A    between atoms: _20  and  _23
REMARK   10  A    between atoms: _23  and  _24
REMARK   11  A    between atoms: _27  and  _29
REMARK   12  A    between atoms: _29  and  _30
REMARK   13  A    between atoms: _29  and  _32
REMARK   14  A    between atoms: _32  and  _33
REMARK   15  A    between atoms: _36  and  _38
REMARK   16  A    between atoms: _38  and  _39
REMARK   17  A    between atoms: _38  and  _41
REMARK   18  A    between atoms: _41  and  _42
REMARK   19  A    between atoms: _45  and  _47
REMARK   20  A    between atoms: _47  and  _48
REMARK   21  A    between atoms: _47  and  _50
REMARK   22  A    between atoms: _50  and  _51
REMARK   23  A    between atoms: _54  and  _56
REMARK   24  A    between atoms: _56  and  _57
REMARK   25  A    between atoms: _59  and  _61
REMARK   26  A    between atoms: _61  and  _62
REMARK   27  A    between atoms: _65  and  _67
REMARK   28  A    between atoms: _67  and  _68
REMARK   29  A    between atoms: _67  and  _70
REMARK   30  A    between atoms: _70  and  _71
REMARK   31  A    between atoms: _74  and  _76
REMARK   32  A    between atoms: _76  and  _77
REMARK   33  A    between atoms: _76  and  _79
REMARK   34  A    between atoms: _79  and  _80
REMARK   35  A    between atoms: _83  and  _85
REMARK   36  A    between atoms: _85  and  _86
REMARK   37  A    between atoms: _85  and  _88
REMARK   38  A    between atoms: _88  and  _89
REMARK   39  A    between atoms: _92  and  _94
REMARK   40  A    between atoms: _94  and  _95
REMARK   41  A    between atoms: _94  and  _97
REMARK   42  A    between atoms: _100  and  _102
REMARK   43  A    between atoms: _102  and  _103
REMARK   44  A    between atoms: _102  and  _105
REMARK   45  A    between atoms: _105  and  _106
REMARK   46  A    between atoms: _106  and  _107
REMARK   47  A    between atoms: _107  and  _108
REMARK   48  A    between atoms: _108  and  _109
REMARK   49  A    between atoms: _113  and  _115
REMARK   50  A    between atoms: _115  and  _116
REMARK   51  A    between atoms: _115  and  _118
REMARK   52  A    between atoms: _118  and  _119
REMARK   53  A    between atoms: _119  and  _120
REMARK   54  A    between atoms: _122  and  _124
REMARK   55  A    between atoms: _124  and  _125
REMARK   56  A    between atoms: _124  and  _127
REMARK   57  A    between atoms: _127  and  _128
REMARK   58  A    between atoms: _131  and  _133
REMARK   59  A    between atoms: _133  and  _134
REMARK   60  A    between atoms: _136  and  _138
REMARK   61  A    between atoms: _138  and  _139
REMARK   62  A    between atoms: _141  and  _143
REMARK   63  A    between atoms: _143  and  _144
REMARK   64  A    between atoms: _143  and  _146
REMARK   65  A    between atoms: _146  and  _147
REMARK   66  A    between atoms: _150  and  _152
REMARK   67  A    between atoms: _152  and  _153
REMARK   68  A    between atoms: _155  and  _157
REMARK   69  A    between atoms: _157  and  _158
REMARK   70  A    between atoms: _160  and  _162
REMARK   71  A    between atoms: _162  and  _163
REMARK   72  A    between atoms: _162  and  _165
REMARK   73  A    between atoms: _165  and  _166
REMARK   74  A    between atoms: _172  and  _174
REMARK   75  A    between atoms: _174  and  _175
REMARK   76  A    between atoms: _174  and  _177
REMARK   77  A    between atoms: _177  and  _178
REMARK   78  A    between atoms: _181  and  _183
REMARK   79  A    between atoms: _183  and  _184
REMARK   80  A    between atoms: _183  and  _186
REMARK   81  A    between atoms: _189  and  _191
REMARK   82  A    between atoms: _191  and  _192
REMARK   83  A    between atoms: _191  and  _194
REMARK   84  A    between atoms: _194  and  _195
REMARK   85  A    between atoms: _198  and  _200
REMARK   86  A    between atoms: _200  and  _201
REMARK   87  A    between atoms: _200  and  _203
REMARK   88  A    between atoms: _203  and  _204
REMARK   89  A    between atoms: _208  and  _209
REMARK   90  A    between atoms: _214  and  _216
REMARK   91  A    between atoms: _216  and  _217
REMARK   92  A    between atoms: _216  and  _219
REMARK   93  A    between atoms: _219  and  _220
REMARK   94  A    between atoms: _223  and  _225
REMARK   95  A    between atoms: _225  and  _226
REMARK   96  A    between atoms: _225  and  _228
REMARK   97  A    between atoms: _228  and  _229
REMARK   98  A    between atoms: _234  and  _236
REMARK   99  A    between atoms: _236  and  _237
REMARK  100  A    between atoms: _236  and  _239
REMARK  101  A    between atoms: _242  and  _244
REMARK  102  A    between atoms: _244  and  _245
REMARK  103  A    between atoms: _244  and  _247
REMARK  104  A    between atoms: _247  and  _248
REMARK  105  A    between atoms: _251  and  _253
REMARK  106  A    between atoms: _253  and  _254
REMARK  107  A    between atoms: _256  and  _258
REMARK  108  A    between atoms: _258  and  _259
REMARK  109  A    between atoms: _258  and  _261
REMARK  110  A    between atoms: _261  and  _262
REMARK  111  A    between atoms: _262  and  _263
REMARK  112  A    between atoms: _263  and  _264
REMARK  113  A    between atoms: _273  and  _275
REMARK  114  A    between atoms: _275  and  _276
REMARK  115  A    between atoms: _275  and  _278
REMARK  116  A    between atoms: _278  and  _279
REMARK  117  A    between atoms: _284  and  _286
REMARK  118  A    between atoms: _286  and  _287
REMARK  119  A    between atoms: _286  and  _289
REMARK  120  A    between atoms: _289  and  _290
REMARK  121  A    between atoms: _290  and  _291
REMARK  122  A    between atoms: _291  and  _292
REMARK  123  A    between atoms: _302  and  _303
REMARK  124  A    between atoms: _308  and  _310
REMARK  125  A    between atoms: _310  and  _311
REMARK  126  A    between atoms: _310  and  _313
REMARK  127  A    between atoms: _313  and  _314
REMARK  128  A    between atoms: _317  and  _319
REMARK  129  A    between atoms: _319  and  _320
REMARK  130  A    between atoms: _319  and  _322
REMARK  131  A    between atoms: _322  and  _323
REMARK  132  A    between atoms: _326  and  _328
REMARK  133  A    between atoms: _328  and  _329
REMARK  134  A    between atoms: _328  and  _331
REMARK  135  A    between atoms: _331  and  _332
REMARK  136  A    between atoms: _335  and  _337
REMARK  137  A    between atoms: _337  and  _338
REMARK  138  A    between atoms: _337  and  _340
REMARK  139  A    between atoms: _340  and  _341
REMARK  140  A    between atoms: _344  and  _346
REMARK  141  A    between atoms: _346  and  _347
REMARK  142  A    between atoms: _346  and  _349
REMARK  143  A    between atoms: _349  and  _350
REMARK  144  A    between atoms: _353  and  _355
REMARK  145  A    between atoms: _355  and  _356
REMARK  146  A    between atoms: _358  and  _360
REMARK  147  A    between atoms: _360  and  _361
REMARK  148  A    between atoms: _364  and  _366
REMARK  149  A    between atoms: _366  and  _367
REMARK  150  A    between atoms: _366  and  _369
REMARK  151  A    between atoms: _369  and  _370
REMARK  152  A    between atoms: _373  and  _375
REMARK  153  A    between atoms: _375  and  _376
REMARK  154  A    between atoms: _375  and  _378
REMARK  155  A    between atoms: _378  and  _379
REMARK  156  A    between atoms: _382  and  _384
REMARK  157  A    between atoms: _384  and  _385
REMARK  158  A    between atoms: _384  and  _387
REMARK  159  A    between atoms: _387  and  _388
REMARK  160  A    between atoms: _391  and  _393
REMARK  161  A    between atoms: _393  and  _394
REMARK  162  A    between atoms: _393  and  _396
REMARK  163  A    between atoms: _399  and  _401
REMARK  164  A    between atoms: _401  and  _402
REMARK  165  A    between atoms: _401  and  _404
REMARK  166  A    between atoms: _404  and  _405
REMARK  167  A    between atoms: _405  and  _406
REMARK  168  A    between atoms: _406  and  _407
REMARK  169  A    between atoms: _407  and  _408
REMARK  170  A    between atoms: _412  and  _414
REMARK  171  A    between atoms: _414  and  _415
REMARK  172  A    between atoms: _414  and  _417
REMARK  173  A    between atoms: _417  and  _418
REMARK  174  A    between atoms: _418  and  _419
REMARK  175  A    between atoms: _421  and  _423
REMARK  176  A    between atoms: _423  and  _424
REMARK  177  A    between atoms: _423  and  _426
REMARK  178  A    between atoms: _426  and  _427
REMARK  179  A    between atoms: _430  and  _432
REMARK  180  A    between atoms: _432  and  _433
REMARK  181  A    between atoms: _435  and  _437
REMARK  182  A    between atoms: _437  and  _438
REMARK  183  A    between atoms: _440  and  _442
REMARK  184  A    between atoms: _442  and  _443
REMARK  185  A    between atoms: _442  and  _445
REMARK  186  A    between atoms: _445  and  _446
REMARK  187  A    between atoms: _449  and  _451
REMARK  188  A    between atoms: _451  and  _452
REMARK  189  A    between atoms: _454  and  _456
REMARK  190  A    between atoms: _456  and  _457
REMARK  191  A    between atoms: _459  and  _461
REMARK  192  A    between atoms: _461  and  _462
REMARK  193  A    between atoms: _461  and  _464
REMARK  194  A    between atoms: _464  and  _465
REMARK  195  A    between atoms: _471  and  _473
REMARK  196  A    between atoms: _473  and  _474
REMARK  197  A    between atoms: _473  and  _476
REMARK  198  A    between atoms: _476  and  _477
REMARK  199  A    between atoms: _480  and  _482
REMARK  200  A    between atoms: _482  and  _483
REMARK  201  A    between atoms: _482  and  _485
REMARK  202  A    between atoms: _488  and  _490
REMARK  203  A    between atoms: _490  and  _491
REMARK  204  A    between atoms: _490  and  _493
REMARK  205  A    between atoms: _493  and  _494
REMARK  206  A    between atoms: _497  and  _499
REMARK  207  A    between atoms: _499  and  _500
REMARK  208  A    between atoms: _499  and  _502
REMARK  209  A    between atoms: _502  and  _503
REMARK  210  A    between atoms: _507  and  _508
REMARK  211  A    between atoms: _513  and  _515
REMARK  212  A    between atoms: _515  and  _516
REMARK  213  A    between atoms: _515  and  _518
REMARK  214  A    between atoms: _518  and  _519
REMARK  215  A    between atoms: _522  and  _524
REMARK  216  A    between atoms: _524  and  _525
REMARK  217  A    between atoms: _524  and  _527
REMARK  218  A    between atoms: _527  and  _528
REMARK  219  A    between atoms: _533  and  _535
REMARK  220  A    between atoms: _535  and  _536
REMARK  221  A    between atoms: _535  and  _538
REMARK  222  A    between atoms: _541  and  _543
REMARK  223  A    between atoms: _543  and  _544
REMARK  224  A    between atoms: _543  and  _546
REMARK  225  A    between atoms: _546  and  _547
REMARK  226  A    between atoms: _550  and  _552
REMARK  227  A    between atoms: _552  and  _553
REMARK  228  A    between atoms: _555  and  _557
REMARK  229  A    between atoms: _557  and  _558
REMARK  230  A    between atoms: _557  and  _560
REMARK  231  A    between atoms: _560  and  _561
REMARK  232  A    between atoms: _561  and  _562
REMARK  233  A    between atoms: _562  and  _563
REMARK                            x       y       z     vdW  Elec       q    Type
REMARK                         _______ _______ _______ _____ _____    ______ ____
ROOT
ATOM      1  C   GLY A   5      12.347  28.469   3.099  0.00  0.00    +0.243 C 
ATOM      2  N   ALA A   6      12.668  29.125   4.209  0.00  0.00    -0.297 N 
ATOM      3  H   ALA A   6      13.576  29.629   4.254  0.00  0.00    +0.150 HD
ATOM      4  O   GLY A   5      11.282  27.869   2.962  0.00  0.00    -0.273 OA
ENDROOT
BRANCH   2   5
ATOM      5  CA  ALA A   6      11.780  29.157   5.368  0.00  0.00    +0.149 C 
ATOM      6  CB  ALA A   6      12.605  28.984   6.641  0.00  0.00    +0.031 C 
BRANCH   5   7
ATOM      7  C   ALA A   6      10.953  30.440   5.461  0.00  0.00    +0.241 C 
ATOM      8  N   ASP A   7       9.630  30.313   5.538  0.00  0.00    -0.297 N 
ATOM      9  H   ASP A   7       9.201  29.366   5.510  0.00  0.00    +0.150 HD
ATOM     10  O   ALA A   6      11.509  31.531   5.461  0.00  0.00    -0.273 OA
BRANCH   8  11
ATOM     11  CA  ASP A   7       8.773  31.493   5.662  0.00  0.00    +0.160 C 
BRANCH  11  12
ATOM     12  C   ASP A   7       8.984  32.117   7.034  0.00  0.00    +0.241 C 
ATOM     13  N   ASP A   8       9.019  31.261   8.051  0.00  0.00    -0.297 N 
ATOM     14  H   ASP A   8       8.947  30.242   7.854  0.00  0.00    +0.150 HD
ATOM     15  O   ASP A   7       9.120  33.335   7.170  0.00  0.00    -0.273 OA
BRANCH  13  16
ATOM     16  CA  ASP A   8       9.155  31.705   9.432  0.00  0.00    +0.160 C 
BRANCH  16  17
ATOM     17  C   ASP A   8      10.469  31.333  10.090  0.00  0.00    +0.241 C 
ATOM     18  N   THR A   9      10.679  31.906  11.267  0.00  0.00    -0.295 N 
ATOM     19  H   THR A   9       9.972  32.579  11.626  0.00  0.00    +0.150 HD
ATOM     20  O   ASP A   8      11.257  30.558   9.559  0.00  0.00    -0.273 OA
BRANCH  18  21
ATOM     21  CA  THR A   9      11.855  31.633  12.077  0.00  0.00    +0.176 C 
BRANCH  21  22
ATOM     22  C   THR A   9      11.331  30.740  13.193  0.00  0.00    +0.243 C 
ATOM     23  O   THR A   9      10.382  31.104  13.888  0.00  0.00    -0.273 OA
ATOM     24  N   VAL A  10      11.926  29.562  13.349  0.00  0.00    -0.298 N 
ATOM     25  H   VAL A  10      12.714  29.297  12.724  0.00  0.00    +0.150 HD
BRANCH  24  26
ATOM     26  CA  VAL A  10      11.487  28.638  14.384  0.00  0.00    +0.137 C 
BRANCH  26  27
ATOM     27  CB  VAL A  10      10.717  27.427  13.776  0.00  0.00    +0.026 C 
ATOM     28  CG2 VAL A  10      10.269  26.483  14.882  0.00  0.00    +0.002 C 
ATOM     29  CG1 VAL A  10      11.593  26.696  12.778  0.00  0.00    +0.002 C 
ENDBRANCH  26  27
BRANCH  26  30
ATOM     30  C   VAL A  10      12.679  28.132  15.188  0.00  0.00    +0.227 C 
ATOM     31  O   VAL A  10      13.685  27.691  14.624  0.00  0.00    -0.286 OA
ENDBRANCH  26  30
ENDBRANCH  24  26
ENDBRANCH  21  22
BRANCH  21  32
ATOM     32  CB  THR A   9      12.432  32.931  12.682  0.00  0.00    +0.137 C 
ATOM     33  CG2 THR A   9      13.513  32.620  13.707  0.00  0.00    +0.034 C 
BRANCH  32  34
ATOM     34  OG1 THR A   9      12.994  33.731  11.637  0.00  0.00    -0.382 OA
ATOM     35  HG1 THR A   9      12.289  33.956  10.980  0.00  0.00    +0.210 HD
ENDBRANCH  32  34
ENDBRANCH  21  32
ENDBRANCH  18  21
ENDBRANCH  16  17
BRANCH  16  36
ATOM     36  CB  ASP A   8       8.026  31.107  10.280  0.00  0.00    +0.143 C 
BRANCH  36  37
ATOM     37  CG  ASP A   8       6.696  31.085   9.555  0.00  0.00    +0.367 C 
ATOM     38  OD2 ASP A   8       6.103  29.988   9.432  0.00  0.00    -0.246 OA
ATOM     39  OD1 ASP A   8       6.243  32.160   9.113  0.00  0.00    -0.246 OA
ENDBRANCH  36  37
ENDBRANCH  16  36
ENDBRANCH  13  16
ENDBRANCH  11  12
BRANCH  11  40
ATOM     40  CB  ASP A   7       7.285  31.130   5.554  0.00  0.00    +0.143 C 
BRANCH  40  41
ATOM     41  CG  ASP A   7       6.829  30.880   4.127  0.00  0.00    +0.367 C 
ATOM     42  OD2 ASP A   7       5.661  30.469   3.962  0.00  0.00    -0.246 OA
ATOM     43  OD1 ASP A   7       7.612  31.102   3.179  0.00  0.00    -0.246 OA
ENDBRANCH  40  41
ENDBRANCH  11  40
ENDBRANCH   8  11
ENDBRANCH   5   7
ENDBRANCH   2   5
BRANCH   1  44
ATOM     44  CA  GLY A   5      13.366  28.496   1.975  0.00  0.00    +0.176 C 
BRANCH  44  46
ATOM     45  C   THR A   4      14.646  30.537   2.076  0.00  0.00    +0.243 C 
ATOM     46  N   GLY A   5      14.570  29.232   2.313  0.00  0.00    -0.295 N 
ATOM     47  H   GLY A   5      15.377  28.736   2.743  0.00  0.00    +0.150 HD
ATOM     48  O   THR A   4      13.728  31.179   1.571  0.00  0.00    -0.273 OA
BRANCH  45  49
ATOM     49  CA  THR A   4      15.952  31.226   2.461  0.00  0.00    +0.176 C 
BRANCH  49  52
ATOM     50  C   ASP A   3      16.289  30.262   4.681  0.00  0.00    +0.241 C 
ATOM     51  O   ASP A   3      15.210  30.679   5.106  0.00  0.00    -0.273 OA
ATOM     52  N   THR A   4      16.717  30.462   3.438  0.00  0.00    -0.295 N 
ATOM     53  H   THR A   4      17.632  30.058   3.152  0.00  0.00    +0.150 HD
BRANCH  50  54
ATOM     54  CA  ASP A   3      17.216  29.444   5.563  0.00  0.00    +0.160 C 
BRANCH  54  56
ATOM     55  C   LEU A   2      19.280  30.165   6.582  0.00  0.00    +0.241 C 
ATOM     56  N   ASP A   3      17.952  30.201   6.566  0.00  0.00    -0.297 N 
ATOM     57  H   ASP A   3      17.438  30.769   7.269  0.00  0.00    +0.150 HD
ATOM     58  O   LEU A   2      19.934  29.537   5.747  0.00  0.00    -0.273 OA
BRANCH  55  59
ATOM     59  CA  LEU A   2      19.985  30.936   7.695  0.00  0.00    +0.149 C 
BRANCH  59  62
ATOM     60  C   LEU A   1      19.828  29.208   9.399  0.00  0.00    +0.238 C 
ATOM     61  O   LEU A   1      18.633  29.436   9.564  0.00  0.00    -0.274 OA
ATOM     62  N   LEU A   2      20.576  29.894   8.538  0.00  0.00    -0.297 N 
ATOM     63  H   LEU A   2      21.593  29.688   8.463  0.00  0.00    +0.150 HD
BRANCH  60  64
ATOM     64  CA  LEU A   1      20.525  28.111  10.205  0.00  0.00    +0.145 C 
BRANCH  64  65
ATOM     65  N   LEU A   1      20.296  28.259  11.634  0.00  0.00    -0.238 NA
ATOM     66  H   LEU A   1      19.426  27.860  12.041  0.00  0.00    +0.142 HD
ENDBRANCH  64  65
BRANCH  64  67
ATOM     67  CB  LEU A   1      19.999  26.743   9.771  0.00  0.00    +0.026 C 
BRANCH  67  68
ATOM     68  CG  LEU A   1      20.290  26.223   8.368  0.00  0.00    +0.002 C 
ATOM     69  CD2 LEU A   1      19.578  24.877   8.189  0.00  0.00    +0.000 C 
ATOM     70  CD1 LEU A   1      21.803  26.075   8.172  0.00  0.00    +0.000 C 
ENDBRANCH  67  68
ENDBRANCH  64  67
ENDBRANCH  60  64
ENDBRANCH  59  62
BRANCH  59  71
ATOM     71  CB  LEU A   2      21.074  31.837   7.104  0.00  0.00    +0.029 C 
BRANCH  71  72
ATOM     72  CG  LEU A   2      21.956  32.601   8.101  0.00  0.00    +0.002 C 
ATOM     73  CD2 LEU A   2      21.100  33.561   8.924  0.00  0.00    +0.000 C 
ATOM     74  CD1 LEU A   2      23.048  33.358   7.349  0.00  0.00    +0.000 C 
ENDBRANCH  71  72
ENDBRANCH  59  71
ENDBRANCH  55  59
ENDBRANCH  54  56
BRANCH  54  75
ATOM     75  CB  ASP A   3      16.423  28.331   6.244  0.00  0.00    +0.143 C 
BRANCH  75  76
ATOM     76  CG  ASP A   3      15.700  27.448   5.251  0.00  0.00    +0.367 C 
ATOM     77  OD2 ASP A   3      14.905  26.596   5.688  0.00  0.00    -0.246 OA
ATOM     78  OD1 ASP A   3      15.929  27.603   4.037  0.00  0.00    -0.246 OA
ENDBRANCH  75  76
ENDBRANCH  54  75
ENDBRANCH  50  54
ENDBRANCH  49  52
BRANCH  49  79
ATOM     79  CB  THR A   4      16.780  31.465   1.179  0.00  0.00    +0.137 C 
ATOM     80  CG2 THR A   4      18.000  32.317   1.489  0.00  0.00    +0.034 C 
BRANCH  79  81
ATOM     81  OG1 THR A   4      17.208  30.207   0.640  0.00  0.00    -0.382 OA
ATOM     82  HG1 THR A   4      16.415  29.656   0.422  0.00  0.00    +0.210 HD
ENDBRANCH  79  81
ENDBRANCH  49  79
ENDBRANCH  45  49
ENDBRANCH  44  46
ENDBRANCH   1  44
TORSDOF 35
REMARK  Name = ../refined-set-2016/2xye/2xye_pocket.pdb
REMARK  233 active torsions:
REMARK  status: ('A' for Active; 'I' for Inactive)
REMARK    1  A    between atoms: _1  and  _3
REMARK    2  A    between atoms: _3  and  _4
REMARK    3  A    between atoms: _3  and  _6
REMARK    4  A    between atoms: _6  and  _7
REMARK    5  A    between atoms: _7  and  _8
REMARK    6  A    between atoms: _8  and  _9
REMARK    7  A    between atoms: _18  and  _20
REMARK    8  A    between atoms: _20  and  _21
REMARK    9  A    between atoms: _20  and  _23
REMARK   10  A    between atoms: _23  and  _24
REMARK   11  A    between atoms: _27  and  _29
REMARK   12  A    between atoms: _29  and  _30
REMARK   13  A    between atoms: _29  and  _32
REMARK   14  A    between atoms: _32  and  _33
REMARK   15  A    between atoms: _36  and  _38
REMARK   16  A    between atoms: _38  and  _39
REMARK   17  A    between atoms: _38  and  _41
REMARK   18  A    between atoms: _41  and  _42
REMARK   19  A    between atoms: _45  and  _47
REMARK   20  A    between atoms: _47  and  _48
REMARK   21  A    between atoms: _47  and  _50
REMARK   22  A    between atoms: _50  and  _51
REMARK   23  A    between atoms: _54  and  _56
REMARK   24  A    between atoms: _56  and  _57
REMARK   25  A    between atoms: _59  and  _61
REMARK   26  A    between atoms: _61  and  _62
REMARK   27  A    between atoms: _65  and  _67
REMARK   28  A    between atoms: _67  and  _68
REMARK   29  A    between atoms: _67  and  _70
REMARK   30  A    between atoms: _70  and  _71
REMARK   31  A    between atoms: _74  and  _76
REMARK   32  A    between atoms: _76  and  _77
REMARK   33  A    between atoms: _76  and  _79
REMARK   34  A    between atoms: _79  and  _80
REMARK   35  A    between atoms: _83  and  _85
REMARK   36  A    between atoms: _85  and  _86
REMARK   37  A    between atoms: _85  and  _88
REMARK   38  A    between atoms: _88  and  _89
REMARK   39  A    between atoms: _92  and  _94
REMARK   40  A    between atoms: _94  and  _95
REMARK   41  A    between atoms: _94  and  _97
REMARK   42  A    between atoms: _100  and  _102
REMARK   43  A    between atoms: _102  and  _103
REMARK   44  A    between atoms: _102  and  _105
REMARK   45  A    between atoms: _105  and  _106
REMARK   46  A    between atoms: _106  and  _107
REMARK   47  A    between atoms: _107  and  _108
REMARK   48  A    between atoms: _108  and  _109
REMARK   49  A    between atoms: _113  and  _115
REMARK   50  A    between atoms: _115  and  _116
REMARK   51  A    between atoms: _115  and  _118
REMARK   52  A    between atoms: _118  and  _119
REMARK   53  A    between atoms: _119  and  _120
REMARK   54  A    between atoms: _122  and  _124
REMARK   55  A    between atoms: _124  and  _125
REMARK   56  A    between atoms: _124  and  _127
REMARK   57  A    between atoms: _127  and  _128
REMARK   58  A    between atoms: _131  and  _133
REMARK   59  A    between atoms: _133  and  _134
REMARK   60  A    between atoms: _136  and  _138
REMARK   61  A    between atoms: _138  and  _139
REMARK   62  A    between atoms: _141  and  _143
REMARK   63  A    between atoms: _143  and  _144
REMARK   64  A    between atoms: _143  and  _146
REMARK   65  A    between atoms: _146  and  _147
REMARK   66  A    between atoms: _150  and  _152
REMARK   67  A    between atoms: _152  and  _153
REMARK   68  A    between atoms: _155  and  _157
REMARK   69  A    between atoms: _157  and  _158
REMARK   70  A    between atoms: _160  and  _162
REMARK   71  A    between atoms: _162  and  _163
REMARK   72  A    between atoms: _162  and  _165
REMARK   73  A    between atoms: _165  and  _166
REMARK   74  A    between atoms: _172  and  _174
REMARK   75  A    between atoms: _174  and  _175
REMARK   76  A    between atoms: _174  and  _177
REMARK   77  A    between atoms: _177  and  _178
REMARK   78  A    between atoms: _181  and  _183
REMARK   79  A    between atoms: _183  and  _184
REMARK   80  A    between atoms: _183  and  _186
REMARK   81  A    between atoms: _189  and  _191
REMARK   82  A    between atoms: _191  and  _192
REMARK   83  A    between atoms: _191  and  _194
REMARK   84  A    between atoms: _194  and  _195
REMARK   85  A    between atoms: _198  and  _200
REMARK   86  A    between atoms: _200  and  _201
REMARK   87  A    between atoms: _200  and  _203
REMARK   88  A    between atoms: _203  and  _204
REMARK   89  A    between atoms: _208  and  _209
REMARK   90  A    between atoms: _214  and  _216
REMARK   91  A    between atoms: _216  and  _217
REMARK   92  A    between atoms: _216  and  _219
REMARK   93  A    between atoms: _219  and  _220
REMARK   94  A    between atoms: _223  and  _225
REMARK   95  A    between atoms: _225  and  _226
REMARK   96  A    between atoms: _225  and  _228
REMARK   97  A    between atoms: _228  and  _229
REMARK   98  A    between atoms: _234  and  _236
REMARK   99  A    between atoms: _236  and  _237
REMARK  100  A    between atoms: _236  and  _239
REMARK  101  A    between atoms: _242  and  _244
REMARK  102  A    between atoms: _244  and  _245
REMARK  103  A    between atoms: _244  and  _247
REMARK  104  A    between atoms: _247  and  _248
REMARK  105  A    between atoms: _251  and  _253
REMARK  106  A    between atoms: _253  and  _254
REMARK  107  A    between atoms: _256  and  _258
REMARK  108  A    between atoms: _258  and  _259
REMARK  109  A    between atoms: _258  and  _261
REMARK  110  A    between atoms: _261  and  _262
REMARK  111  A    between atoms: _262  and  _263
REMARK  112  A    between atoms: _263  and  _264
REMARK  113  A    between atoms: _273  and  _275
REMARK  114  A    between atoms: _275  and  _276
REMARK  115  A    between atoms: _275  and  _278
REMARK  116  A    between atoms: _278  and  _279
REMARK  117  A    between atoms: _284  and  _286
REMARK  118  A    between atoms: _286  and  _287
REMARK  119  A    between atoms: _286  and  _289
REMARK  120  A    between atoms: _289  and  _290
REMARK  121  A    between atoms: _290  and  _291
REMARK  122  A    between atoms: _291  and  _292
REMARK  123  A    between atoms: _302  and  _303
REMARK  124  A    between atoms: _308  and  _310
REMARK  125  A    between atoms: _310  and  _311
REMARK  126  A    between atoms: _310  and  _313
REMARK  127  A    between atoms: _313  and  _314
REMARK  128  A    between atoms: _317  and  _319
REMARK  129  A    between atoms: _319  and  _320
REMARK  130  A    between atoms: _319  and  _322
REMARK  131  A    between atoms: _322  and  _323
REMARK  132  A    between atoms: _326  and  _328
REMARK  133  A    between atoms: _328  and  _329
REMARK  134  A    between atoms: _328  and  _331
REMARK  135  A    between atoms: _331  and  _332
REMARK  136  A    between atoms: _335  and  _337
REMARK  137  A    between atoms: _337  and  _338
REMARK  138  A    between atoms: _337  and  _340
REMARK  139  A    between atoms: _340  and  _341
REMARK  140  A    between atoms: _344  and  _346
REMARK  141  A    between atoms: _346  and  _347
REMARK  142  A    between atoms: _346  and  _349
REMARK  143  A    between atoms: _349  and  _350
REMARK  144  A    between atoms: _353  and  _355
REMARK  145  A    between atoms: _355  and  _356
REMARK  146  A    between atoms: _358  and  _360
REMARK  147  A    between atoms: _360  and  _361
REMARK  148  A    between atoms: _364  and  _366
REMARK  149  A    between atoms: _366  and  _367
REMARK  150  A    between atoms: _366  and  _369
REMARK  151  A    between atoms: _369  and  _370
REMARK  152  A    between atoms: _373  and  _375
REMARK  153  A    between atoms: _375  and  _376
REMARK  154  A    between atoms: _375  and  _378
REMARK  155  A    between atoms: _378  and  _379
REMARK  156  A    between atoms: _382  and  _384
REMARK  157  A    between atoms: _384  and  _385
REMARK  158  A    between atoms: _384  and  _387
REMARK  159  A    between atoms: _387  and  _388
REMARK  160  A    between atoms: _391  and  _393
REMARK  161  A    between atoms: _393  and  _394
REMARK  162  A    between atoms: _393  and  _396
REMARK  163  A    between atoms: _399  and  _401
REMARK  164  A    between atoms: _401  and  _402
REMARK  165  A    between atoms: _401  and  _404
REMARK  166  A    between atoms: _404  and  _405
REMARK  167  A    between atoms: _405  and  _406
REMARK  168  A    between atoms: _406  and  _407
REMARK  169  A    between atoms: _407  and  _408
REMARK  170  A    between atoms: _412  and  _414
REMARK  171  A    between atoms: _414  and  _415
REMARK  172  A    between atoms: _414  and  _417
REMARK  173  A    between atoms: _417  and  _418
REMARK  174  A    between atoms: _418  and  _419
REMARK  175  A    between atoms: _421  and  _423
REMARK  176  A    between atoms: _423  and  _424
REMARK  177  A    between atoms: _423  and  _426
REMARK  178  A    between atoms: _426  and  _427
REMARK  179  A    between atoms: _430  and  _432
REMARK  180  A    between atoms: _432  and  _433
REMARK  181  A    between atoms: _435  and  _437
REMARK  182  A    between atoms: _437  and  _438
REMARK  183  A    between atoms: _440  and  _442
REMARK  184  A    between atoms: _442  and  _443
REMARK  185  A    between atoms: _442  and  _445
REMARK  186  A    between atoms: _445  and  _446
REMARK  187  A    between atoms: _449  and  _451
REMARK  188  A    between atoms: _451  and  _452
REMARK  189  A    between atoms: _454  and  _456
REMARK  190  A    between atoms: _456  and  _457
REMARK  191  A    between atoms: _459  and  _461
REMARK  192  A    between atoms: _461  and  _462
REMARK  193  A    between atoms: _461  and  _464
REMARK  194  A    between atoms: _464  and  _465
REMARK  195  A    between atoms: _471  and  _473
REMARK  196  A    between atoms: _473  and  _474
REMARK  197  A    between atoms: _473  and  _476
REMARK  198  A    between atoms: _476  and  _477
REMARK  199  A    between atoms: _480  and  _482
REMARK  200  A    between atoms: _482  and  _483
REMARK  201  A    between atoms: _482  and  _485
REMARK  202  A    between atoms: _488  and  _490
REMARK  203  A    between atoms: _490  and  _491
REMARK  204  A    between atoms: _490  and  _493
REMARK  205  A    between atoms: _493  and  _494
REMARK  206  A    between atoms: _497  and  _499
REMARK  207  A    between atoms: _499  and  _500
REMARK  208  A    between atoms: _499  and  _502
REMARK  209  A    between atoms: _502  and  _503
REMARK  210  A    between atoms: _507  and  _508
REMARK  211  A    between atoms: _513  and  _515
REMARK  212  A    between atoms: _515  and  _516
REMARK  213  A    between atoms: _515  and  _518
REMARK  214  A    between atoms: _518  and  _519
REMARK  215  A    between atoms: _522  and  _524
REMARK  216  A    between atoms: _524  and  _525
REMARK  217  A    between atoms: _524  and  _527
REMARK  218  A    between atoms: _527  and  _528
REMARK  219  A    between atoms: _533  and  _535
REMARK  220  A    between atoms: _535  and  _536
REMARK  221  A    between atoms: _535  and  _538
REMARK  222  A    between atoms: _541  and  _543
REMARK  223  A    between atoms: _543  and  _544
REMARK  224  A    between atoms: _543  and  _546
REMARK  225  A    between atoms: _546  and  _547
REMARK  226  A    between atoms: _550  and  _552
REMARK  227  A    between atoms: _552  and  _553
REMARK  228  A    between atoms: _555  and  _557
REMARK  229  A    between atoms: _557  and  _558
REMARK  230  A    between atoms: _557  and  _560
REMARK  231  A    between atoms: _560  and  _561
REMARK  232  A    between atoms: _561  and  _562
REMARK  233  A    between atoms: _562  and  _563
REMARK                            x       y       z     vdW  Elec       q    Type
REMARK                         _______ _______ _______ _____ _____    ______ ____
ROOT
ATOM      1  C   GLY A   5       7.897  19.706   5.581  0.00  0.00    +0.243 C 
ATOM      2  O   GLY A   5       6.920  18.959   5.639  0.00  0.00    -0.273 OA
ATOM      3  N   ILE A   6       9.092  19.291   5.182  0.00  0.00    -0.297 N 
ATOM      4  H   ILE A   6       9.884  19.963   5.125  0.00  0.00    +0.150 HD
ENDROOT
BRANCH   3   5
ATOM      5  CA  ILE A   6       9.293  17.898   4.825  0.00  0.00    +0.149 C 
BRANCH   5   6
ATOM      6  C   ILE A   6       8.968  17.067   6.061  0.00  0.00    +0.241 C 
ATOM      7  O   ILE A   6       9.405  17.392   7.164  0.00  0.00    -0.273 OA
ATOM      8  N   GLY A   7       8.197  16.002   5.881  0.00  0.00    -0.295 N 
ATOM      9  H   GLY A   7       7.836  15.773   4.933  0.00  0.00    +0.150 HD
BRANCH   8  10
ATOM     10  CA  GLY A   7       7.859  15.157   7.014  0.00  0.00    +0.176 C 
BRANCH  10  11
ATOM     11  C   GLY A   7       6.511  15.463   7.637  0.00  0.00    +0.243 C 
ATOM     12  O   GLY A   7       5.946  14.627   8.338  0.00  0.00    -0.273 OA
ATOM     13  N   GLY A   8       5.990  16.659   7.401  0.00  0.00    -0.295 N 
ATOM     14  H   GLY A   8       6.501  17.350   6.816  0.00  0.00    +0.150 HD
BRANCH  13  15
ATOM     15  CA  GLY A   8       4.695  16.991   7.970  0.00  0.00    +0.176 C 
BRANCH  15  16
ATOM     16  C   GLY A   8       4.674  18.271   8.777  0.00  0.00    +0.243 C 
ATOM     17  N   PHE A   9       3.748  18.340   9.732  0.00  0.00    -0.297 N 
ATOM     18  H   PHE A   9       3.120  17.525   9.884  0.00  0.00    +0.150 HD
ATOM     19  O   GLY A   8       5.484  19.174   8.548  0.00  0.00    -0.273 OA
BRANCH  17  20
ATOM     20  CA  PHE A   9       3.587  19.525  10.573  0.00  0.00    +0.153 C 
BRANCH  20  21
ATOM     21  C   PHE A   9       3.955  19.325  12.033  0.00  0.00    +0.241 C 
ATOM     22  N   ILE A  10       4.271  20.430  12.696  0.00  0.00    -0.298 N 
ATOM     23  H   ILE A  10       4.309  21.331  12.179  0.00  0.00    +0.150 HD
ATOM     24  O   PHE A   9       3.952  18.208  12.547  0.00  0.00    -0.273 OA
BRANCH  22  25
ATOM     25  CA  ILE A  10       4.567  20.426  14.126  0.00  0.00    +0.137 C 
BRANCH  25  26
ATOM     26  C   ILE A  10       3.852  21.652  14.689  0.00  0.00    +0.227 C 
ATOM     27  O   ILE A  10       3.646  22.646  13.981  0.00  0.00    -0.286 OA
ENDBRANCH  25  26
BRANCH  25  28
ATOM     28  CB  ILE A  10       6.086  20.542  14.443  0.00  0.00    +0.026 C 
ATOM     29  CG2 ILE A  10       6.817  19.309  13.942  0.00  0.00    +0.002 C 
BRANCH  28  30
ATOM     30  CG1 ILE A  10       6.658  21.825  13.840  0.00  0.00    +0.002 C 
ATOM     31  CD1 ILE A  10       8.067  22.136  14.303  0.00  0.00    +0.000 C 
ENDBRANCH  28  30
ENDBRANCH  25  28
ENDBRANCH  22  25
ENDBRANCH  20  21
BRANCH  20  32
ATOM     32  CB  PHE A   9       2.132  20.008  10.543  0.00  0.00    +0.055 C 
BRANCH  32  33
ATOM     33  CG  PHE A   9       1.667  20.478   9.199  0.00  0.00    -0.020 A 
ATOM     34  CD2 PHE A   9       1.428  21.831   8.972  0.00  0.00    -0.004 A 
ATOM     35  CE2 PHE A   9       0.994  22.279   7.736  0.00  0.00    -0.000 A 
ATOM     36  CZ  PHE A   9       0.792  21.371   6.704  0.00  0.00    -0.000 A 
ATOM     37  CE1 PHE A   9       1.027  20.015   6.918  0.00  0.00    -0.000 A 
ATOM     38  CD1 PHE A   9       1.463  19.576   8.163  0.00  0.00    -0.004 A 
ENDBRANCH  32  33
ENDBRANCH  20  32
ENDBRANCH  17  20
ENDBRANCH  15  16
ENDBRANCH  13  15
ENDBRANCH  10  11
ENDBRANCH   8  10
ENDBRANCH   5   6
BRANCH   5  39
ATOM     39  CB  ILE A   6      10.757  17.625   4.417  0.00  0.00    +0.027 C 
ATOM     40  CG2 ILE A   6      11.007  16.126   4.332  0.00  0.00    +0.002 C 
BRANCH  39  41
ATOM     41  CG1 ILE A   6      11.054  18.287   3.072  0.00  0.00    +0.002 C 
ATOM     42  CD1 ILE A   6      10.333  17.663   1.922  0.00  0.00    +0.000 C 
ENDBRANCH  39  41
ENDBRANCH   5  39
ENDBRANCH   3   5
BRANCH   1  43
ATOM     43  CA  GLY A   5       7.751  21.161   5.963  0.00  0.00    +0.176 C 
BRANCH  43  45
ATOM     44  C   GLY A   4       5.934  22.402   6.983  0.00  0.00    +0.243 C 
ATOM     45  N   GLY A   5       6.546  21.245   6.762  0.00  0.00    -0.295 N 
ATOM     46  H   GLY A   5       6.150  20.376   7.173  0.00  0.00    +0.150 HD
ATOM     47  O   GLY A   4       6.341  23.481   6.554  0.00  0.00    -0.273 OA
BRANCH  44  48
ATOM     48  CA  GLY A   4       4.681  22.308   7.822  0.00  0.00    +0.176 C 
BRANCH  48  51
ATOM     49  C   ILE A   3       4.224  23.506   9.847  0.00  0.00    +0.241 C 
ATOM     50  O   ILE A   3       4.404  22.492  10.519  0.00  0.00    -0.273 OA
ATOM     51  N   GLY A   4       4.334  23.525   8.526  0.00  0.00    -0.295 N 
ATOM     52  H   GLY A   4       4.172  24.407   7.999  0.00  0.00    +0.150 HD
BRANCH  49  53
ATOM     53  CA  ILE A   3       3.820  24.810  10.506  0.00  0.00    +0.149 C 
BRANCH  53  55
ATOM     54  C   MET A   2       1.740  24.997  11.718  0.00  0.00    +0.241 C 
ATOM     55  N   ILE A   3       2.968  24.503  11.643  0.00  0.00    -0.297 N 
ATOM     56  H   ILE A   3       3.325  23.891  12.404  0.00  0.00    +0.150 HD
ATOM     57  O   MET A   2       1.274  25.761  10.874  0.00  0.00    -0.273 OA
BRANCH  54  58
ATOM     58  CA  MET A   2       0.920  24.605  12.938  0.00  0.00    +0.149 C 
BRANCH  58  61
ATOM     59  C   LYS A   1       0.879  26.269  14.693  0.00  0.00    +0.238 C 
ATOM     60  O   LYS A   1       1.654  25.621  15.396  0.00  0.00    -0.274 OA
ATOM     61  N   MET A   2       0.446  25.847  13.514  0.00  0.00    -0.297 N 
ATOM     62  H   MET A   2      -0.248  26.419  12.992  0.00  0.00    +0.150 HD
BRANCH  59  63
ATOM     63  CA  LYS A   1       0.331  27.606  15.159  0.00  0.00    +0.145 C 
BRANCH  63  64
ATOM     64  N   LYS A   1       0.272  27.629  16.607  0.00  0.00    -0.238 NA
ATOM     65  H   LYS A   1       0.942  27.051  17.153  0.00  0.00    +0.142 HD
ENDBRANCH  63  64
BRANCH  63  66
ATOM     66  CB  LYS A   1       1.228  28.739  14.641  0.00  0.00    +0.026 C 
BRANCH  66  67
ATOM     67  CG  LYS A   1       1.320  28.812  13.125  0.00  0.00    -0.000 C 
BRANCH  67  68
ATOM     68  CD  LYS A   1       2.223  29.948  12.676  0.00  0.00    -0.024 C 
BRANCH  68  69
ATOM     69  CE  LYS A   1       2.267  30.053  11.153  0.00  0.00    -0.086 C 
BRANCH  69  70
ATOM     70  NZ  LYS A   1       3.159  31.153  10.692  0.00  0.00    +0.380 N 
ATOM     71  HZ1 LYS A   1       2.814  32.059  11.070  0.00  0.00    -0.089 HD
ATOM     72  HZ2 LYS A   1       4.126  30.980  11.033  0.00  0.00    -0.089 HD
ATOM     73  HZ3 LYS A   1       3.157  31.186   9.653  0.00  0.00    -0.089 HD
ENDBRANCH  69  70
ENDBRANCH  68  69
ENDBRANCH  67  68
ENDBRANCH  66  67
ENDBRANCH  63  66
ENDBRANCH  59  63
ENDBRANCH  58  61
BRANCH  58  74
ATOM     74  CB  MET A   2      -0.257  23.722  12.525  0.00  0.00    +0.041 C 
BRANCH  74  75
ATOM     75  CG  MET A   2      -0.925  23.006  13.684  0.00  0.00    +0.060 C 
BRANCH  75  76
ATOM     76  SD  MET A   2       0.082  21.633  14.291  0.00  0.00    -0.139 S 
ATOM     77  CE  MET A   2      -0.430  20.318  13.188  0.00  0.00    +0.069 C 
ENDBRANCH  75  76
ENDBRANCH  74  75
ENDBRANCH  58  74
ENDBRANCH  54  58
ENDBRANCH  53  55
BRANCH  53  78
ATOM     78  CB  ILE A   3       5.074  25.624  10.926  0.00  0.00    +0.027 C 
ATOM     79  CG2 ILE A   3       4.641  26.994  11.449  0.00  0.00    +0.002 C 
BRANCH  78  80
ATOM     80  CG1 ILE A   3       5.880  24.868  11.985  0.00  0.00    +0.002 C 
ATOM     81  CD1 ILE A   3       7.205  25.539  12.330  0.00  0.00    +0.000 C 
ENDBRANCH  78  80
ENDBRANCH  53  78
ENDBRANCH  49  53
ENDBRANCH  48  51
ENDBRANCH  44  48
ENDBRANCH  43  45
ENDBRANCH   1  43
TORSDOF 36
REMARK  Name = ../refined-set-2016/2xye/2xye_pocket.pdb
REMARK  233 active torsions:
REMARK  status: ('A' for Active; 'I' for Inactive)
REMARK    1  A    between atoms: _1  and  _3
REMARK    2  A    between atoms: _3  and  _4
REMARK    3  A    between atoms: _3  and  _6
REMARK    4  A    between atoms: _6  and  _7
REMARK    5  A    between atoms: _7  and  _8
REMARK    6  A    between atoms: _8  and  _9
REMARK    7  A    between atoms: _18  and  _20
REMARK    8  A    between atoms: _20  and  _21
REMARK    9  A    between atoms: _20  and  _23
REMARK   10  A    between atoms: _23  and  _24
REMARK   11  A    between atoms: _27  and  _29
REMARK   12  A    between atoms: _29  and  _30
REMARK   13  A    between atoms: _29  and  _32
REMARK   14  A    between atoms: _32  and  _33
REMARK   15  A    between atoms: _36  and  _38
REMARK   16  A    between atoms: _38  and  _39
REMARK   17  A    between atoms: _38  and  _41
REMARK   18  A    between atoms: _41  and  _42
REMARK   19  A    between atoms: _45  and  _47
REMARK   20  A    between atoms: _47  and  _48
REMARK   21  A    between atoms: _47  and  _50
REMARK   22  A    between atoms: _50  and  _51
REMARK   23  A    between atoms: _54  and  _56
REMARK   24  A    between atoms: _56  and  _57
REMARK   25  A    between atoms: _59  and  _61
REMARK   26  A    between atoms: _61  and  _62
REMARK   27  A    between atoms: _65  and  _67
REMARK   28  A    between atoms: _67  and  _68
REMARK   29  A    between atoms: _67  and  _70
REMARK   30  A    between atoms: _70  and  _71
REMARK   31  A    between atoms: _74  and  _76
REMARK   32  A    between atoms: _76  and  _77
REMARK   33  A    between atoms: _76  and  _79
REMARK   34  A    between atoms: _79  and  _80
REMARK   35  A    between atoms: _83  and  _85
REMARK   36  A    between atoms: _85  and  _86
REMARK   37  A    between atoms: _85  and  _88
REMARK   38  A    between atoms: _88  and  _89
REMARK   39  A    between atoms: _92  and  _94
REMARK   40  A    between atoms: _94  and  _95
REMARK   41  A    between atoms: _94  and  _97
REMARK   42  A    between atoms: _100  and  _102
REMARK   43  A    between atoms: _102  and  _103
REMARK   44  A    between atoms: _102  and  _105
REMARK   45  A    between atoms: _105  and  _106
REMARK   46  A    between atoms: _106  and  _107
REMARK   47  A    between atoms: _107  and  _108
REMARK   48  A    between atoms: _108  and  _109
REMARK   49  A    between atoms: _113  and  _115
REMARK   50  A    between atoms: _115  and  _116
REMARK   51  A    between atoms: _115  and  _118
REMARK   52  A    between atoms: _118  and  _119
REMARK   53  A    between atoms: _119  and  _120
REMARK   54  A    between atoms: _122  and  _124
REMARK   55  A    between atoms: _124  and  _125
REMARK   56  A    between atoms: _124  and  _127
REMARK   57  A    between atoms: _127  and  _128
REMARK   58  A    between atoms: _131  and  _133
REMARK   59  A    between atoms: _133  and  _134
REMARK   60  A    between atoms: _136  and  _138
REMARK   61  A    between atoms: _138  and  _139
REMARK   62  A    between atoms: _141  and  _143
REMARK   63  A    between atoms: _143  and  _144
REMARK   64  A    between atoms: _143  and  _146
REMARK   65  A    between atoms: _146  and  _147
REMARK   66  A    between atoms: _150  and  _152
REMARK   67  A    between atoms: _152  and  _153
REMARK   68  A    between atoms: _155  and  _157
REMARK   69  A    between atoms: _157  and  _158
REMARK   70  A    between atoms: _160  and  _162
REMARK   71  A    between atoms: _162  and  _163
REMARK   72  A    between atoms: _162  and  _165
REMARK   73  A    between atoms: _165  and  _166
REMARK   74  A    between atoms: _172  and  _174
REMARK   75  A    between atoms: _174  and  _175
REMARK   76  A    between atoms: _174  and  _177
REMARK   77  A    between atoms: _177  and  _178
REMARK   78  A    between atoms: _181  and  _183
REMARK   79  A    between atoms: _183  and  _184
REMARK   80  A    between atoms: _183  and  _186
REMARK   81  A    between atoms: _189  and  _191
REMARK   82  A    between atoms: _191  and  _192
REMARK   83  A    between atoms: _191  and  _194
REMARK   84  A    between atoms: _194  and  _195
REMARK   85  A    between atoms: _198  and  _200
REMARK   86  A    between atoms: _200  and  _201
REMARK   87  A    between atoms: _200  and  _203
REMARK   88  A    between atoms: _203  and  _204
REMARK   89  A    between atoms: _208  and  _209
REMARK   90  A    between atoms: _214  and  _216
REMARK   91  A    between atoms: _216  and  _217
REMARK   92  A    between atoms: _216  and  _219
REMARK   93  A    between atoms: _219  and  _220
REMARK   94  A    between atoms: _223  and  _225
REMARK   95  A    between atoms: _225  and  _226
REMARK   96  A    between atoms: _225  and  _228
REMARK   97  A    between atoms: _228  and  _229
REMARK   98  A    between atoms: _234  and  _236
REMARK   99  A    between atoms: _236  and  _237
REMARK  100  A    between atoms: _236  and  _239
REMARK  101  A    between atoms: _242  and  _244
REMARK  102  A    between atoms: _244  and  _245
REMARK  103  A    between atoms: _244  and  _247
REMARK  104  A    between atoms: _247  and  _248
REMARK  105  A    between atoms: _251  and  _253
REMARK  106  A    between atoms: _253  and  _254
REMARK  107  A    between atoms: _256  and  _258
REMARK  108  A    between atoms: _258  and  _259
REMARK  109  A    between atoms: _258  and  _261
REMARK  110  A    between atoms: _261  and  _262
REMARK  111  A    between atoms: _262  and  _263
REMARK  112  A    between atoms: _263  and  _264
REMARK  113  A    between atoms: _273  and  _275
REMARK  114  A    between atoms: _275  and  _276
REMARK  115  A    between atoms: _275  and  _278
REMARK  116  A    between atoms: _278  and  _279
REMARK  117  A    between atoms: _284  and  _286
REMARK  118  A    between atoms: _286  and  _287
REMARK  119  A    between atoms: _286  and  _289
REMARK  120  A    between atoms: _289  and  _290
REMARK  121  A    between atoms: _290  and  _291
REMARK  122  A    between atoms: _291  and  _292
REMARK  123  A    between atoms: _302  and  _303
REMARK  124  A    between atoms: _308  and  _310
REMARK  125  A    between atoms: _310  and  _311
REMARK  126  A    between atoms: _310  and  _313
REMARK  127  A    between atoms: _313  and  _314
REMARK  128  A    between atoms: _317  and  _319
REMARK  129  A    between atoms: _319  and  _320
REMARK  130  A    between atoms: _319  and  _322
REMARK  131  A    between atoms: _322  and  _323
REMARK  132  A    between atoms: _326  and  _328
REMARK  133  A    between atoms: _328  and  _329
REMARK  134  A    between atoms: _328  and  _331
REMARK  135  A    between atoms: _331  and  _332
REMARK  136  A    between atoms: _335  and  _337
REMARK  137  A    between atoms: _337  and  _338
REMARK  138  A    between atoms: _337  and  _340
REMARK  139  A    between atoms: _340  and  _341
REMARK  140  A    between atoms: _344  and  _346
REMARK  141  A    between atoms: _346  and  _347
REMARK  142  A    between atoms: _346  and  _349
REMARK  143  A    between atoms: _349  and  _350
REMARK  144  A    between atoms: _353  and  _355
REMARK  145  A    between atoms: _355  and  _356
REMARK  146  A    between atoms: _358  and  _360
REMARK  147  A    between atoms: _360  and  _361
REMARK  148  A    between atoms: _364  and  _366
REMARK  149  A    between atoms: _366  and  _367
REMARK  150  A    between atoms: _366  and  _369
REMARK  151  A    between atoms: _369  and  _370
REMARK  152  A    between atoms: _373  and  _375
REMARK  153  A    between atoms: _375  and  _376
REMARK  154  A    between atoms: _375  and  _378
REMARK  155  A    between atoms: _378  and  _379
REMARK  156  A    between atoms: _382  and  _384
REMARK  157  A    between atoms: _384  and  _385
REMARK  158  A    between atoms: _384  and  _387
REMARK  159  A    between atoms: _387  and  _388
REMARK  160  A    between atoms: _391  and  _393
REMARK  161  A    between atoms: _393  and  _394
REMARK  162  A    between atoms: _393  and  _396
REMARK  163  A    between atoms: _399  and  _401
REMARK  164  A    between atoms: _401  and  _402
REMARK  165  A    between atoms: _401  and  _404
REMARK  166  A    between atoms: _404  and  _405
REMARK  167  A    between atoms: _405  and  _406
REMARK  168  A    between atoms: _406  and  _407
REMARK  169  A    between atoms: _407  and  _408
REMARK  170  A    between atoms: _412  and  _414
REMARK  171  A    between atoms: _414  and  _415
REMARK  172  A    between atoms: _414  and  _417
REMARK  173  A    between atoms: _417  and  _418
REMARK  174  A    between atoms: _418  and  _419
REMARK  175  A    between atoms: _421  and  _423
REMARK  176  A    between atoms: _423  and  _424
REMARK  177  A    between atoms: _423  and  _426
REMARK  178  A    between atoms: _426  and  _427
REMARK  179  A    between atoms: _430  and  _432
REMARK  180  A    between atoms: _432  and  _433
REMARK  181  A    between atoms: _435  and  _437
REMARK  182  A    between atoms: _437  and  _438
REMARK  183  A    between atoms: _440  and  _442
REMARK  184  A    between atoms: _442  and  _443
REMARK  185  A    between atoms: _442  and  _445
REMARK  186  A    between atoms: _445  and  _446
REMARK  187  A    between atoms: _449  and  _451
REMARK  188  A    between atoms: _451  and  _452
REMARK  189  A    between atoms: _454  and  _456
REMARK  190  A    between atoms: _456  and  _457
REMARK  191  A    between atoms: _459  and  _461
REMARK  192  A    between atoms: _461  and  _462
REMARK  193  A    between atoms: _461  and  _464
REMARK  194  A    between atoms: _464  and  _465
REMARK  195  A    between atoms: _471  and  _473
REMARK  196  A    between atoms: _473  and  _474
REMARK  197  A    between atoms: _473  and  _476
REMARK  198  A    between atoms: _476  and  _477
REMARK  199  A    between atoms: _480  and  _482
REMARK  200  A    between atoms: _482  and  _483
REMARK  201  A    between atoms: _482  and  _485
REMARK  202  A    between atoms: _488  and  _490
REMARK  203  A    between atoms: _490  and  _491
REMARK  204  A    between atoms: _490  and  _493
REMARK  205  A    between atoms: _493  and  _494
REMARK  206  A    between atoms: _497  and  _499
REMARK  207  A    between atoms: _499  and  _500
REMARK  208  A    between atoms: _499  and  _502
REMARK  209  A    between atoms: _502  and  _503
REMARK  210  A    between atoms: _507  and  _508
REMARK  211  A    between atoms: _513  and  _515
REMARK  212  A    between atoms: _515  and  _516
REMARK  213  A    between atoms: _515  and  _518
REMARK  214  A    between atoms: _518  and  _519
REMARK  215  A    between atoms: _522  and  _524
REMARK  216  A    between atoms: _524  and  _525
REMARK  217  A    between atoms: _524  and  _527
REMARK  218  A    between atoms: _527  and  _528
REMARK  219  A    between atoms: _533  and  _535
REMARK  220  A    between atoms: _535  and  _536
REMARK  221  A    between atoms: _535  and  _538
REMARK  222  A    between atoms: _541  and  _543
REMARK  223  A    between atoms: _543  and  _544
REMARK  224  A    between atoms: _543  and  _546
REMARK  225  A    between atoms: _546  and  _547
REMARK  226  A    between atoms: _550  and  _552
REMARK  227  A    between atoms: _552  and  _553
REMARK  228  A    between atoms: _555  and  _557
REMARK  229  A    between atoms: _557  and  _558
REMARK  230  A    between atoms: _557  and  _560
REMARK  231  A    between atoms: _560  and  _561
REMARK  232  A    between atoms: _561  and  _562
REMARK  233  A    between atoms: _562  and  _563
REMARK                            x       y       z     vdW  Elec       q    Type
REMARK                         _______ _______ _______ _____ _____    ______ ____
ROOT
ATOM      1  CA  VAL A   1       4.634  25.738  17.858  0.00  0.00    +0.133 C 
ENDROOT
BRANCH   1   2
ATOM      2  CB  VAL A   1       5.640  26.315  16.823  0.00  0.00    +0.023 C 
ATOM      3  CG2 VAL A   1       6.450  25.192  16.192  0.00  0.00    +0.002 C 
ATOM      4  CG1 VAL A   1       4.885  27.082  15.742  0.00  0.00    +0.002 C 
ENDBRANCH   1   2
BRANCH   1   5
ATOM      5  N   VAL A   1       3.698  24.823  17.217  0.00  0.00    -0.239 NA
ATOM      6  H   VAL A   1       2.920  25.213  16.648  0.00  0.00    +0.142 HD
ENDBRANCH   1   5
BRANCH   1   7
ATOM      7  C   VAL A   1       3.882  26.908  18.497  0.00  0.00    +0.224 C 
ATOM      8  O   VAL A   1       2.676  27.069  18.296  0.00  0.00    -0.287 OA
ENDBRANCH   1   7
TORSDOF 3
REMARK  Name = ../refined-set-2016/2xye/2xye_pocket.pdb
REMARK  233 active torsions:
REMARK  status: ('A' for Active; 'I' for Inactive)
REMARK    1  A    between atoms: _1  and  _3
REMARK    2  A    between atoms: _3  and  _4
REMARK    3  A    between atoms: _3  and  _6
REMARK    4  A    between atoms: _6  and  _7
REMARK    5  A    between atoms: _7  and  _8
REMARK    6  A    between atoms: _8  and  _9
REMARK    7  A    between atoms: _18  and  _20
REMARK    8  A    between atoms: _20  and  _21
REMARK    9  A    between atoms: _20  and  _23
REMARK   10  A    between atoms: _23  and  _24
REMARK   11  A    between atoms: _27  and  _29
REMARK   12  A    between atoms: _29  and  _30
REMARK   13  A    between atoms: _29  and  _32
REMARK   14  A    between atoms: _32  and  _33
REMARK   15  A    between atoms: _36  and  _38
REMARK   16  A    between atoms: _38  and  _39
REMARK   17  A    between atoms: _38  and  _41
REMARK   18  A    between atoms: _41  and  _42
REMARK   19  A    between atoms: _45  and  _47
REMARK   20  A    between atoms: _47  and  _48
REMARK   21  A    between atoms: _47  and  _50
REMARK   22  A    between atoms: _50  and  _51
REMARK   23  A    between atoms: _54  and  _56
REMARK   24  A    between atoms: _56  and  _57
REMARK   25  A    between atoms: _59  and  _61
REMARK   26  A    between atoms: _61  and  _62
REMARK   27  A    between atoms: _65  and  _67
REMARK   28  A    between atoms: _67  and  _68
REMARK   29  A    between atoms: _67  and  _70
REMARK   30  A    between atoms: _70  and  _71
REMARK   31  A    between atoms: _74  and  _76
REMARK   32  A    between atoms: _76  and  _77
REMARK   33  A    between atoms: _76  and  _79
REMARK   34  A    between atoms: _79  and  _80
REMARK   35  A    between atoms: _83  and  _85
REMARK   36  A    between atoms: _85  and  _86
REMARK   37  A    between atoms: _85  and  _88
REMARK   38  A    between atoms: _88  and  _89
REMARK   39  A    between atoms: _92  and  _94
REMARK   40  A    between atoms: _94  and  _95
REMARK   41  A    between atoms: _94  and  _97
REMARK   42  A    between atoms: _100  and  _102
REMARK   43  A    between atoms: _102  and  _103
REMARK   44  A    between atoms: _102  and  _105
REMARK   45  A    between atoms: _105  and  _106
REMARK   46  A    between atoms: _106  and  _107
REMARK   47  A    between atoms: _107  and  _108
REMARK   48  A    between atoms: _108  and  _109
REMARK   49  A    between atoms: _113  and  _115
REMARK   50  A    between atoms: _115  and  _116
REMARK   51  A    between atoms: _115  and  _118
REMARK   52  A    between atoms: _118  and  _119
REMARK   53  A    between atoms: _119  and  _120
REMARK   54  A    between atoms: _122  and  _124
REMARK   55  A    between atoms: _124  and  _125
REMARK   56  A    between atoms: _124  and  _127
REMARK   57  A    between atoms: _127  and  _128
REMARK   58  A    between atoms: _131  and  _133
REMARK   59  A    between atoms: _133  and  _134
REMARK   60  A    between atoms: _136  and  _138
REMARK   61  A    between atoms: _138  and  _139
REMARK   62  A    between atoms: _141  and  _143
REMARK   63  A    between atoms: _143  and  _144
REMARK   64  A    between atoms: _143  and  _146
REMARK   65  A    between atoms: _146  and  _147
REMARK   66  A    between atoms: _150  and  _152
REMARK   67  A    between atoms: _152  and  _153
REMARK   68  A    between atoms: _155  and  _157
REMARK   69  A    between atoms: _157  and  _158
REMARK   70  A    between atoms: _160  and  _162
REMARK   71  A    between atoms: _162  and  _163
REMARK   72  A    between atoms: _162  and  _165
REMARK   73  A    between atoms: _165  and  _166
REMARK   74  A    between atoms: _172  and  _174
REMARK   75  A    between atoms: _174  and  _175
REMARK   76  A    between atoms: _174  and  _177
REMARK   77  A    between atoms: _177  and  _178
REMARK   78  A    between atoms: _181  and  _183
REMARK   79  A    between atoms: _183  and  _184
REMARK   80  A    between atoms: _183  and  _186
REMARK   81  A    between atoms: _189  and  _191
REMARK   82  A    between atoms: _191  and  _192
REMARK   83  A    between atoms: _191  and  _194
REMARK   84  A    between atoms: _194  and  _195
REMARK   85  A    between atoms: _198  and  _200
REMARK   86  A    between atoms: _200  and  _201
REMARK   87  A    between atoms: _200  and  _203
REMARK   88  A    between atoms: _203  and  _204
REMARK   89  A    between atoms: _208  and  _209
REMARK   90  A    between atoms: _214  and  _216
REMARK   91  A    between atoms: _216  and  _217
REMARK   92  A    between atoms: _216  and  _219
REMARK   93  A    between atoms: _219  and  _220
REMARK   94  A    between atoms: _223  and  _225
REMARK   95  A    between atoms: _225  and  _226
REMARK   96  A    between atoms: _225  and  _228
REMARK   97  A    between atoms: _228  and  _229
REMARK   98  A    between atoms: _234  and  _236
REMARK   99  A    between atoms: _236  and  _237
REMARK  100  A    between atoms: _236  and  _239
REMARK  101  A    between atoms: _242  and  _244
REMARK  102  A    between atoms: _244  and  _245
REMARK  103  A    between atoms: _244  and  _247
REMARK  104  A    between atoms: _247  and  _248
REMARK  105  A    between atoms: _251  and  _253
REMARK  106  A    between atoms: _253  and  _254
REMARK  107  A    between atoms: _256  and  _258
REMARK  108  A    between atoms: _258  and  _259
REMARK  109  A    between atoms: _258  and  _261
REMARK  110  A    between atoms: _261  and  _262
REMARK  111  A    between atoms: _262  and  _263
REMARK  112  A    between atoms: _263  and  _264
REMARK  113  A    between atoms: _273  and  _275
REMARK  114  A    between atoms: _275  and  _276
REMARK  115  A    between atoms: _275  and  _278
REMARK  116  A    between atoms: _278  and  _279
REMARK  117  A    between atoms: _284  and  _286
REMARK  118  A    between atoms: _286  and  _287
REMARK  119  A    between atoms: _286  and  _289
REMARK  120  A    between atoms: _289  and  _290
REMARK  121  A    between atoms: _290  and  _291
REMARK  122  A    between atoms: _291  and  _292
REMARK  123  A    between atoms: _302  and  _303
REMARK  124  A    between atoms: _308  and  _310
REMARK  125  A    between atoms: _310  and  _311
REMARK  126  A    between atoms: _310  and  _313
REMARK  127  A    between atoms: _313  and  _314
REMARK  128  A    between atoms: _317  and  _319
REMARK  129  A    between atoms: _319  and  _320
REMARK  130  A    between atoms: _319  and  _322
REMARK  131  A    between atoms: _322  and  _323
REMARK  132  A    between atoms: _326  and  _328
REMARK  133  A    between atoms: _328  and  _329
REMARK  134  A    between atoms: _328  and  _331
REMARK  135  A    between atoms: _331  and  _332
REMARK  136  A    between atoms: _335  and  _337
REMARK  137  A    between atoms: _337  and  _338
REMARK  138  A    between atoms: _337  and  _340
REMARK  139  A    between atoms: _340  and  _341
REMARK  140  A    between atoms: _344  and  _346
REMARK  141  A    between atoms: _346  and  _347
REMARK  142  A    between atoms: _346  and  _349
REMARK  143  A    between atoms: _349  and  _350
REMARK  144  A    between atoms: _353  and  _355
REMARK  145  A    between atoms: _355  and  _356
REMARK  146  A    between atoms: _358  and  _360
REMARK  147  A    between atoms: _360  and  _361
REMARK  148  A    between atoms: _364  and  _366
REMARK  149  A    between atoms: _366  and  _367
REMARK  150  A    between atoms: _366  and  _369
REMARK  151  A    between atoms: _369  and  _370
REMARK  152  A    between atoms: _373  and  _375
REMARK  153  A    between atoms: _375  and  _376
REMARK  154  A    between atoms: _375  and  _378
REMARK  155  A    between atoms: _378  and  _379
REMARK  156  A    between atoms: _382  and  _384
REMARK  157  A    between atoms: _384  and  _385
REMARK  158  A    between atoms: _384  and  _387
REMARK  159  A    between atoms: _387  and  _388
REMARK  160  A    between atoms: _391  and  _393
REMARK  161  A    between atoms: _393  and  _394
REMARK  162  A    between atoms: _393  and  _396
REMARK  163  A    between atoms: _399  and  _401
REMARK  164  A    between atoms: _401  and  _402
REMARK  165  A    between atoms: _401  and  _404
REMARK  166  A    between atoms: _404  and  _405
REMARK  167  A    between atoms: _405  and  _406
REMARK  168  A    between atoms: _406  and  _407
REMARK  169  A    between atoms: _407  and  _408
REMARK  170  A    between atoms: _412  and  _414
REMARK  171  A    between atoms: _414  and  _415
REMARK  172  A    between atoms: _414  and  _417
REMARK  173  A    between atoms: _417  and  _418
REMARK  174  A    between atoms: _418  and  _419
REMARK  175  A    between atoms: _421  and  _423
REMARK  176  A    between atoms: _423  and  _424
REMARK  177  A    between atoms: _423  and  _426
REMARK  178  A    between atoms: _426  and  _427
REMARK  179  A    between atoms: _430  and  _432
REMARK  180  A    between atoms: _432  and  _433
REMARK  181  A    between atoms: _435  and  _437
REMARK  182  A    between atoms: _437  and  _438
REMARK  183  A    between atoms: _440  and  _442
REMARK  184  A    between atoms: _442  and  _443
REMARK  185  A    between atoms: _442  and  _445
REMARK  186  A    between atoms: _445  and  _446
REMARK  187  A    between atoms: _449  and  _451
REMARK  188  A    between atoms: _451  and  _452
REMARK  189  A    between atoms: _454  and  _456
REMARK  190  A    between atoms: _456  and  _457
REMARK  191  A    between atoms: _459  and  _461
REMARK  192  A    between atoms: _461  and  _462
REMARK  193  A    between atoms: _461  and  _464
REMARK  194  A    between atoms: _464  and  _465
REMARK  195  A    between atoms: _471  and  _473
REMARK  196  A    between atoms: _473  and  _474
REMARK  197  A    between atoms: _473  and  _476
REMARK  198  A    between atoms: _476  and  _477
REMARK  199  A    between atoms: _480  and  _482
REMARK  200  A    between atoms: _482  and  _483
REMARK  201  A    between atoms: _482  and  _485
REMARK  202  A    between atoms: _488  and  _490
REMARK  203  A    between atoms: _490  and  _491
REMARK  204  A    between atoms: _490  and  _493
REMARK  205  A    between atoms: _493  and  _494
REMARK  206  A    between atoms: _497  and  _499
REMARK  207  A    between atoms: _499  and  _500
REMARK  208  A    between atoms: _499  and  _502
REMARK  209  A    between atoms: _502  and  _503
REMARK  210  A    between atoms: _507  and  _508
REMARK  211  A    between atoms: _513  and  _515
REMARK  212  A    between atoms: _515  and  _516
REMARK  213  A    between atoms: _515  and  _518
REMARK  214  A    between atoms: _518  and  _519
REMARK  215  A    between atoms: _522  and  _524
REMARK  216  A    between atoms: _524  and  _525
REMARK  217  A    between atoms: _524  and  _527
REMARK  218  A    between atoms: _527  and  _528
REMARK  219  A    between atoms: _533  and  _535
REMARK  220  A    between atoms: _535  and  _536
REMARK  221  A    between atoms: _535  and  _538
REMARK  222  A    between atoms: _541  and  _543
REMARK  223  A    between atoms: _543  and  _544
REMARK  224  A    between atoms: _543  and  _546
REMARK  225  A    between atoms: _546  and  _547
REMARK  226  A    between atoms: _550  and  _552
REMARK  227  A    between atoms: _552  and  _553
REMARK  228  A    between atoms: _555  and  _557
REMARK  229  A    between atoms: _557  and  _558
REMARK  230  A    between atoms: _557  and  _560
REMARK  231  A    between atoms: _560  and  _561
REMARK  232  A    between atoms: _561  and  _562
REMARK  233  A    between atoms: _562  and  _563
REMARK                            x       y       z     vdW  Elec       q    Type
REMARK                         _______ _______ _______ _____ _____    ______ ____
ROOT
ATOM      1  CA  LEU A   1       8.093  30.394  16.509  0.00  0.00    +0.133 C 
ENDROOT
BRANCH   1   2
ATOM      2  N   LEU A   1       8.898  31.553  16.160  0.00  0.00    -0.239 NA
ATOM      3  H   LEU A   1       9.603  31.481  15.399  0.00  0.00    +0.142 HD
ENDBRANCH   1   2
BRANCH   1   4
ATOM      4  C   LEU A   1       8.954  29.487  17.382  0.00  0.00    +0.224 C 
ATOM      5  O   LEU A   1      10.138  29.286  17.103  0.00  0.00    -0.287 OA
ENDBRANCH   1   4
BRANCH   1   6
ATOM      6  CB  LEU A   1       7.638  29.652  15.246  0.00  0.00    +0.025 C 
BRANCH   6   7
ATOM      7  CG  LEU A   1       6.915  30.504  14.195  0.00  0.00    +0.002 C 
ATOM      8  CD2 LEU A   1       5.733  31.224  14.839  0.00  0.00    +0.000 C 
ATOM      9  CD1 LEU A   1       6.445  29.619  13.045  0.00  0.00    +0.000 C 
ENDBRANCH   6   7
ENDBRANCH   1   6
TORSDOF 4
REMARK  Name = ../refined-set-2016/2xye/2xye_pocket.pdb
REMARK  233 active torsions:
REMARK  status: ('A' for Active; 'I' for Inactive)
REMARK    1  A    between atoms: _1  and  _3
REMARK    2  A    between atoms: _3  and  _4
REMARK    3  A    between atoms: _3  and  _6
REMARK    4  A    between atoms: _6  and  _7
REMARK    5  A    between atoms: _7  and  _8
REMARK    6  A    between atoms: _8  and  _9
REMARK    7  A    between atoms: _18  and  _20
REMARK    8  A    between atoms: _20  and  _21
REMARK    9  A    between atoms: _20  and  _23
REMARK   10  A    between atoms: _23  and  _24
REMARK   11  A    between atoms: _27  and  _29
REMARK   12  A    between atoms: _29  and  _30
REMARK   13  A    between atoms: _29  and  _32
REMARK   14  A    between atoms: _32  and  _33
REMARK   15  A    between atoms: _36  and  _38
REMARK   16  A    between atoms: _38  and  _39
REMARK   17  A    between atoms: _38  and  _41
REMARK   18  A    between atoms: _41  and  _42
REMARK   19  A    between atoms: _45  and  _47
REMARK   20  A    between atoms: _47  and  _48
REMARK   21  A    between atoms: _47  and  _50
REMARK   22  A    between atoms: _50  and  _51
REMARK   23  A    between atoms: _54  and  _56
REMARK   24  A    between atoms: _56  and  _57
REMARK   25  A    between atoms: _59  and  _61
REMARK   26  A    between atoms: _61  and  _62
REMARK   27  A    between atoms: _65  and  _67
REMARK   28  A    between atoms: _67  and  _68
REMARK   29  A    between atoms: _67  and  _70
REMARK   30  A    between atoms: _70  and  _71
REMARK   31  A    between atoms: _74  and  _76
REMARK   32  A    between atoms: _76  and  _77
REMARK   33  A    between atoms: _76  and  _79
REMARK   34  A    between atoms: _79  and  _80
REMARK   35  A    between atoms: _83  and  _85
REMARK   36  A    between atoms: _85  and  _86
REMARK   37  A    between atoms: _85  and  _88
REMARK   38  A    between atoms: _88  and  _89
REMARK   39  A    between atoms: _92  and  _94
REMARK   40  A    between atoms: _94  and  _95
REMARK   41  A    between atoms: _94  and  _97
REMARK   42  A    between atoms: _100  and  _102
REMARK   43  A    between atoms: _102  and  _103
REMARK   44  A    between atoms: _102  and  _105
REMARK   45  A    between atoms: _105  and  _106
REMARK   46  A    between atoms: _106  and  _107
REMARK   47  A    between atoms: _107  and  _108
REMARK   48  A    between atoms: _108  and  _109
REMARK   49  A    between atoms: _113  and  _115
REMARK   50  A    between atoms: _115  and  _116
REMARK   51  A    between atoms: _115  and  _118
REMARK   52  A    between atoms: _118  and  _119
REMARK   53  A    between atoms: _119  and  _120
REMARK   54  A    between atoms: _122  and  _124
REMARK   55  A    between atoms: _124  and  _125
REMARK   56  A    between atoms: _124  and  _127
REMARK   57  A    between atoms: _127  and  _128
REMARK   58  A    between atoms: _131  and  _133
REMARK   59  A    between atoms: _133  and  _134
REMARK   60  A    between atoms: _136  and  _138
REMARK   61  A    between atoms: _138  and  _139
REMARK   62  A    between atoms: _141  and  _143
REMARK   63  A    between atoms: _143  and  _144
REMARK   64  A    between atoms: _143  and  _146
REMARK   65  A    between atoms: _146  and  _147
REMARK   66  A    between atoms: _150  and  _152
REMARK   67  A    between atoms: _152  and  _153
REMARK   68  A    between atoms: _155  and  _157
REMARK   69  A    between atoms: _157  and  _158
REMARK   70  A    between atoms: _160  and  _162
REMARK   71  A    between atoms: _162  and  _163
REMARK   72  A    between atoms: _162  and  _165
REMARK   73  A    between atoms: _165  and  _166
REMARK   74  A    between atoms: _172  and  _174
REMARK   75  A    between atoms: _174  and  _175
REMARK   76  A    between atoms: _174  and  _177
REMARK   77  A    between atoms: _177  and  _178
REMARK   78  A    between atoms: _181  and  _183
REMARK   79  A    between atoms: _183  and  _184
REMARK   80  A    between atoms: _183  and  _186
REMARK   81  A    between atoms: _189  and  _191
REMARK   82  A    between atoms: _191  and  _192
REMARK   83  A    between atoms: _191  and  _194
REMARK   84  A    between atoms: _194  and  _195
REMARK   85  A    between atoms: _198  and  _200
REMARK   86  A    between atoms: _200  and  _201
REMARK   87  A    between atoms: _200  and  _203
REMARK   88  A    between atoms: _203  and  _204
REMARK   89  A    between atoms: _208  and  _209
REMARK   90  A    between atoms: _214  and  _216
REMARK   91  A    between atoms: _216  and  _217
REMARK   92  A    between atoms: _216  and  _219
REMARK   93  A    between atoms: _219  and  _220
REMARK   94  A    between atoms: _223  and  _225
REMARK   95  A    between atoms: _225  and  _226
REMARK   96  A    between atoms: _225  and  _228
REMARK   97  A    between atoms: _228  and  _229
REMARK   98  A    between atoms: _234  and  _236
REMARK   99  A    between atoms: _236  and  _237
REMARK  100  A    between atoms: _236  and  _239
REMARK  101  A    between atoms: _242  and  _244
REMARK  102  A    between atoms: _244  and  _245
REMARK  103  A    between atoms: _244  and  _247
REMARK  104  A    between atoms: _247  and  _248
REMARK  105  A    between atoms: _251  and  _253
REMARK  106  A    between atoms: _253  and  _254
REMARK  107  A    between atoms: _256  and  _258
REMARK  108  A    between atoms: _258  and  _259
REMARK  109  A    between atoms: _258  and  _261
REMARK  110  A    between atoms: _261  and  _262
REMARK  111  A    between atoms: _262  and  _263
REMARK  112  A    between atoms: _263  and  _264
REMARK  113  A    between atoms: _273  and  _275
REMARK  114  A    between atoms: _275  and  _276
REMARK  115  A    between atoms: _275  and  _278
REMARK  116  A    between atoms: _278  and  _279
REMARK  117  A    between atoms: _284  and  _286
REMARK  118  A    between atoms: _286  and  _287
REMARK  119  A    between atoms: _286  and  _289
REMARK  120  A    between atoms: _289  and  _290
REMARK  121  A    between atoms: _290  and  _291
REMARK  122  A    between atoms: _291  and  _292
REMARK  123  A    between atoms: _302  and  _303
REMARK  124  A    between atoms: _308  and  _310
REMARK  125  A    between atoms: _310  and  _311
REMARK  126  A    between atoms: _310  and  _313
REMARK  127  A    between atoms: _313  and  _314
REMARK  128  A    between atoms: _317  and  _319
REMARK  129  A    between atoms: _319  and  _320
REMARK  130  A    between atoms: _319  and  _322
REMARK  131  A    between atoms: _322  and  _323
REMARK  132  A    between atoms: _326  and  _328
REMARK  133  A    between atoms: _328  and  _329
REMARK  134  A    between atoms: _328  and  _331
REMARK  135  A    between atoms: _331  and  _332
REMARK  136  A    between atoms: _335  and  _337
REMARK  137  A    between atoms: _337  and  _338
REMARK  138  A    between atoms: _337  and  _340
REMARK  139  A    between atoms: _340  and  _341
REMARK  140  A    between atoms: _344  and  _346
REMARK  141  A    between atoms: _346  and  _347
REMARK  142  A    between atoms: _346  and  _349
REMARK  143  A    between atoms: _349  and  _350
REMARK  144  A    between atoms: _353  and  _355
REMARK  145  A    between atoms: _355  and  _356
REMARK  146  A    between atoms: _358  and  _360
REMARK  147  A    between atoms: _360  and  _361
REMARK  148  A    between atoms: _364  and  _366
REMARK  149  A    between atoms: _366  and  _367
REMARK  150  A    between atoms: _366  and  _369
REMARK  151  A    between atoms: _369  and  _370
REMARK  152  A    between atoms: _373  and  _375
REMARK  153  A    between atoms: _375  and  _376
REMARK  154  A    between atoms: _375  and  _378
REMARK  155  A    between atoms: _378  and  _379
REMARK  156  A    between atoms: _382  and  _384
REMARK  157  A    between atoms: _384  and  _385
REMARK  158  A    between atoms: _384  and  _387
REMARK  159  A    between atoms: _387  and  _388
REMARK  160  A    between atoms: _391  and  _393
REMARK  161  A    between atoms: _393  and  _394
REMARK  162  A    between atoms: _393  and  _396
REMARK  163  A    between atoms: _399  and  _401
REMARK  164  A    between atoms: _401  and  _402
REMARK  165  A    between atoms: _401  and  _404
REMARK  166  A    between atoms: _404  and  _405
REMARK  167  A    between atoms: _405  and  _406
REMARK  168  A    between atoms: _406  and  _407
REMARK  169  A    between atoms: _407  and  _408
REMARK  170  A    between atoms: _412  and  _414
REMARK  171  A    between atoms: _414  and  _415
REMARK  172  A    between atoms: _414  and  _417
REMARK  173  A    between atoms: _417  and  _418
REMARK  174  A    between atoms: _418  and  _419
REMARK  175  A    between atoms: _421  and  _423
REMARK  176  A    between atoms: _423  and  _424
REMARK  177  A    between atoms: _423  and  _426
REMARK  178  A    between atoms: _426  and  _427
REMARK  179  A    between atoms: _430  and  _432
REMARK  180  A    between atoms: _432  and  _433
REMARK  181  A    between atoms: _435  and  _437
REMARK  182  A    between atoms: _437  and  _438
REMARK  183  A    between atoms: _440  and  _442
REMARK  184  A    between atoms: _442  and  _443
REMARK  185  A    between atoms: _442  and  _445
REMARK  186  A    between atoms: _445  and  _446
REMARK  187  A    between atoms: _449  and  _451
REMARK  188  A    between atoms: _451  and  _452
REMARK  189  A    between atoms: _454  and  _456
REMARK  190  A    between atoms: _456  and  _457
REMARK  191  A    between atoms: _459  and  _461
REMARK  192  A    between atoms: _461  and  _462
REMARK  193  A    between atoms: _461  and  _464
REMARK  194  A    between atoms: _464  and  _465
REMARK  195  A    between atoms: _471  and  _473
REMARK  196  A    between atoms: _473  and  _474
REMARK  197  A    between atoms: _473  and  _476
REMARK  198  A    between atoms: _476  and  _477
REMARK  199  A    between atoms: _480  and  _482
REMARK  200  A    between atoms: _482  and  _483
REMARK  201  A    between atoms: _482  and  _485
REMARK  202  A    between atoms: _488  and  _490
REMARK  203  A    between atoms: _490  and  _491
REMARK  204  A    between atoms: _490  and  _493
REMARK  205  A    between atoms: _493  and  _494
REMARK  206  A    between atoms: _497  and  _499
REMARK  207  A    between atoms: _499  and  _500
REMARK  208  A    between atoms: _499  and  _502
REMARK  209  A    between atoms: _502  and  _503
REMARK  210  A    between atoms: _507  and  _508
REMARK  211  A    between atoms: _513  and  _515
REMARK  212  A    between atoms: _515  and  _516
REMARK  213  A    between atoms: _515  and  _518
REMARK  214  A    between atoms: _518  and  _519
REMARK  215  A    between atoms: _522  and  _524
REMARK  216  A    between atoms: _524  and  _525
REMARK  217  A    between atoms: _524  and  _527
REMARK  218  A    between atoms: _527  and  _528
REMARK  219  A    between atoms: _533  and  _535
REMARK  220  A    between atoms: _535  and  _536
REMARK  221  A    between atoms: _535  and  _538
REMARK  222  A    between atoms: _541  and  _543
REMARK  223  A    between atoms: _543  and  _544
REMARK  224  A    between atoms: _543  and  _546
REMARK  225  A    between atoms: _546  and  _547
REMARK  226  A    between atoms: _550  and  _552
REMARK  227  A    between atoms: _552  and  _553
REMARK  228  A    between atoms: _555  and  _557
REMARK  229  A    between atoms: _557  and  _558
REMARK  230  A    between atoms: _557  and  _560
REMARK  231  A    between atoms: _560  and  _561
REMARK  232  A    between atoms: _561  and  _562
REMARK  233  A    between atoms: _562  and  _563
REMARK                            x       y       z     vdW  Elec       q    Type
REMARK                         _______ _______ _______ _____ _____    ______ ____
ROOT
ATOM      1  C   VAL A   5      15.668  29.566  11.609  0.00  0.00    +0.241 C 
ATOM      2  O   VAL A   5      14.720  29.974  12.282  0.00  0.00    -0.273 OA
ATOM      3  N   ILE A   6      16.426  30.364  10.862  0.00  0.00    -0.297 N 
ATOM      4  H   ILE A   6      17.248  29.967  10.364  0.00  0.00    +0.150 HD
ENDROOT
BRANCH   3   5
ATOM      5  CA  ILE A   6      16.127  31.783  10.728  0.00  0.00    +0.149 C 
BRANCH   5   6
ATOM      6  C   ILE A   6      15.462  31.930   9.363  0.00  0.00    +0.241 C 
ATOM      7  N   GLY A   7      14.190  32.310   9.363  0.00  0.00    -0.295 N 
ATOM      8  H   GLY A   7      13.711  32.512  10.264  0.00  0.00    +0.150 HD
ATOM      9  O   ILE A   6      16.092  31.697   8.329  0.00  0.00    -0.273 OA
BRANCH   7  10
ATOM     10  CA  GLY A   7      13.462  32.445   8.113  0.00  0.00    +0.176 C 
BRANCH  10  11
ATOM     11  C   GLY A   7      13.494  33.816   7.461  0.00  0.00    +0.243 C 
ATOM     12  O   GLY A   7      14.063  34.766   7.994  0.00  0.00    -0.273 OA
ATOM     13  N   ARG A   8      12.862  33.912   6.297  0.00  0.00    -0.297 N 
ATOM     14  H   ARG A   8      12.383  33.073   5.914  0.00  0.00    +0.150 HD
BRANCH  13  15
ATOM     15  CA  ARG A   8      12.819  35.155   5.541  0.00  0.00    +0.149 C 
BRANCH  15  16
ATOM     16  C   ARG A   8      12.305  36.349   6.340  0.00  0.00    +0.241 C 
ATOM     17  N   ASN A   9      11.372  36.121   7.261  0.00  0.00    -0.298 N 
ATOM     18  H   ASN A   9      11.038  35.152   7.437  0.00  0.00    +0.150 HD
ATOM     19  O   ARG A   8      12.761  37.470   6.129  0.00  0.00    -0.273 OA
BRANCH  17  20
ATOM     20  CA  ASN A   9      10.818  37.237   8.024  0.00  0.00    +0.146 C 
BRANCH  20  21
ATOM     21  C   ASN A   9      11.886  38.034   8.766  0.00  0.00    +0.227 C 
ATOM     22  O   ASN A   9      11.682  39.203   9.074  0.00  0.00    -0.286 OA
ENDBRANCH  20  21
BRANCH  20  23
ATOM     23  CB  ASN A   9       9.737  36.754   9.000  0.00  0.00    +0.112 C 
BRANCH  23  24
ATOM     24  CG  ASN A   9      10.309  36.022  10.186  0.00  0.00    +0.222 C 
ATOM     25  ND2 ASN A   9      10.059  36.550  11.383  0.00  0.00    -0.329 N 
ATOM     26 HD21 ASN A   9      10.426  36.091  12.241  0.00  0.00    +0.145 HD
ATOM     27 HD22 ASN A   9       9.496  37.421  11.460  0.00  0.00    +0.145 HD
ATOM     28  OD1 ASN A   9      10.968  34.994  10.036  0.00  0.00    -0.275 OA
ENDBRANCH  23  24
ENDBRANCH  20  23
ENDBRANCH  17  20
ENDBRANCH  15  16
BRANCH  15  29
ATOM     29  CB  ARG A   8      11.957  34.979   4.280  0.00  0.00    +0.033 C 
BRANCH  29  30
ATOM     30  CG  ARG A   8      12.536  34.010   3.247  0.00  0.00    +0.045 C 
BRANCH  30  31
ATOM     31  CD  ARG A   8      11.728  33.994   1.940  0.00  0.00    +0.174 C 
BRANCH  31  32
ATOM     32  NE  ARG A   8      10.367  33.494   2.132  0.00  0.00    -0.265 N 
ATOM     33  CZ  ARG A   8       9.282  34.260   2.223  0.00  0.00    +0.342 C 
ATOM     34  NH2 ARG A   8       8.096  33.699   2.421  0.00  0.00    -0.292 N 
ATOM     35 HH21 ARG A   8       8.017  32.665   2.504  0.00  0.00    +0.255 HD
ATOM     36 HH22 ARG A   8       7.245  34.293   2.493  0.00  0.00    +0.255 HD
ATOM     37  NH1 ARG A   8       9.379  35.582   2.135  0.00  0.00    -0.292 N 
ATOM     38 HH11 ARG A   8       8.526  36.172   2.207  0.00  0.00    +0.255 HD
ATOM     39 HH12 ARG A   8      10.308  36.027   1.994  0.00  0.00    +0.255 HD
ATOM     40  HE  ARG A   8      10.237  32.465   2.203  0.00  0.00    +0.259 HD
ENDBRANCH  31  32
ENDBRANCH  30  31
ENDBRANCH  29  30
ENDBRANCH  15  29
ENDBRANCH  13  15
ENDBRANCH  10  11
ENDBRANCH   7  10
ENDBRANCH   5   6
BRANCH   5  41
ATOM     41  CB  ILE A   6      17.387  32.645  10.744  0.00  0.00    +0.027 C 
ATOM     42  CG2 ILE A   6      17.002  34.104  10.539  0.00  0.00    +0.002 C 
BRANCH  41  43
ATOM     43  CG1 ILE A   6      18.123  32.471  12.070  0.00  0.00    +0.002 C 
ATOM     44  CD1 ILE A   6      19.503  33.091  12.073  0.00  0.00    +0.000 C 
ENDBRANCH  41  43
ENDBRANCH   5  41
ENDBRANCH   3   5
BRANCH   1  45
ATOM     45  CA  VAL A   5      16.050  28.091  11.607  0.00  0.00    +0.149 C 
BRANCH  45  47
ATOM     46  C   ASN A   4      17.140  26.841  13.377  0.00  0.00    +0.241 C 
ATOM     47  N   VAL A   5      16.087  27.515  12.937  0.00  0.00    -0.297 N 
ATOM     48  H   VAL A   5      15.265  27.634  13.563  0.00  0.00    +0.150 HD
ATOM     49  O   ASN A   4      18.164  26.686  12.712  0.00  0.00    -0.273 OA
BRANCH  46  50
ATOM     50  CA  ASN A   4      17.018  26.268  14.785  0.00  0.00    +0.158 C 
BRANCH  50  52
ATOM     51  C   THR A   3      16.539  23.940  14.281  0.00  0.00    +0.243 C 
ATOM     52  N   ASN A   4      17.357  24.850  14.803  0.00  0.00    -0.297 N 
ATOM     53  H   ASN A   4      18.254  24.545  15.231  0.00  0.00    +0.150 HD
ATOM     54  O   THR A   3      15.460  24.231  13.763  0.00  0.00    -0.273 OA
BRANCH  51  55
ATOM     55  CA  THR A   3      17.001  22.481  14.360  0.00  0.00    +0.176 C 
BRANCH  55  58
ATOM     56  C   PRO A   2      16.028  20.352  14.966  0.00  0.00    +0.241 C 
ATOM     57  O   PRO A   2      17.098  19.980  15.439  0.00  0.00    -0.273 OA
ATOM     58  N   THR A   3      15.874  21.553  14.412  0.00  0.00    -0.295 N 
ATOM     59  H   THR A   3      14.953  21.830  14.017  0.00  0.00    +0.150 HD
BRANCH  56  63
ATOM     60  C   THR A   1      13.143  20.983  15.843  0.00  0.00    +0.244 C 
ATOM     61  O   THR A   1      13.805  21.147  16.865  0.00  0.00    -0.273 OA
ATOM     62  N   PRO A   2      13.540  20.152  14.874  0.00  0.00    -0.272 N 
ATOM     63  CA  PRO A   2      14.809  19.436  15.008  0.00  0.00    +0.152 C 
ATOM     64  CB  PRO A   2      14.765  18.437  13.852  0.00  0.00    +0.031 C 
ATOM     65  CG  PRO A   2      13.922  19.127  12.839  0.00  0.00    +0.024 C 
ATOM     66  CD  PRO A   2      12.812  19.715  13.671  0.00  0.00    +0.094 C 
BRANCH  60  67
ATOM     67  CA  THR A   1      11.814  21.703  15.649  0.00  0.00    +0.172 C 
BRANCH  67  68
ATOM     68  N   THR A   1      11.149  21.751  16.940  0.00  0.00    -0.236 NA
ATOM     69  H   THR A   1      11.178  22.621  17.509  0.00  0.00    +0.142 HD
ENDBRANCH  67  68
BRANCH  67  70
ATOM     70  CB  THR A   1      12.086  23.109  15.086  0.00  0.00    +0.135 C 
ATOM     71  CG2 THR A   1      12.871  23.951  16.085  0.00  0.00    +0.034 C 
BRANCH  70  72
ATOM     72  OG1 THR A   1      12.831  22.993  13.869  0.00  0.00    -0.383 OA
ATOM     73  HG1 THR A   1      13.690  22.536  14.052  0.00  0.00    +0.210 HD
ENDBRANCH  70  72
ENDBRANCH  67  70
ENDBRANCH  60  67
ENDBRANCH  56  63
ENDBRANCH  55  58
BRANCH  55  74
ATOM     74  CB  THR A   3      17.926  22.173  13.156  0.00  0.00    +0.137 C 
ATOM     75  CG2 THR A   3      17.317  22.693  11.870  0.00  0.00    +0.034 C 
BRANCH  74  76
ATOM     76  OG1 THR A   3      19.196  22.809  13.351  0.00  0.00    -0.382 OA
ATOM     77  HG1 THR A   3      19.066  23.788  13.425  0.00  0.00    +0.210 HD
ENDBRANCH  74  76
ENDBRANCH  55  74
ENDBRANCH  51  55
ENDBRANCH  50  52
BRANCH  50  78
ATOM     78  CB  ASN A   4      17.915  27.050  15.742  0.00  0.00    +0.114 C 
BRANCH  78  79
ATOM     79  CG  ASN A   4      17.715  26.646  17.193  0.00  0.00    +0.222 C 
ATOM     80  ND2 ASN A   4      18.777  26.758  17.991  0.00  0.00    -0.329 N 
ATOM     81 HD21 ASN A   4      18.699  26.511  18.998  0.00  0.00    +0.145 HD
ATOM     82 HD22 ASN A   4      19.684  27.092  17.606  0.00  0.00    +0.145 HD
ATOM     83  OD1 ASN A   4      16.616  26.255  17.598  0.00  0.00    -0.275 OA
ENDBRANCH  78  79
ENDBRANCH  50  78
ENDBRANCH  46  50
ENDBRANCH  45  47
BRANCH  45  84
ATOM     84  CB  VAL A   5      15.035  27.325  10.727  0.00  0.00    +0.027 C 
ATOM     85  CG2 VAL A   5      15.491  25.881  10.550  0.00  0.00    +0.002 C 
ATOM     86  CG1 VAL A   5      14.880  28.008   9.375  0.00  0.00    +0.002 C 
ENDBRANCH  45  84
ENDBRANCH   1  45
TORSDOF 32
REMARK  Name = ../refined-set-2016/2xye/2xye_pocket.pdb
REMARK  233 active torsions:
REMARK  status: ('A' for Active; 'I' for Inactive)
REMARK    1  A    between atoms: _1  and  _3
REMARK    2  A    between atoms: _3  and  _4
REMARK    3  A    between atoms: _3  and  _6
REMARK    4  A    between atoms: _6  and  _7
REMARK    5  A    between atoms: _7  and  _8
REMARK    6  A    between atoms: _8  and  _9
REMARK    7  A    between atoms: _18  and  _20
REMARK    8  A    between atoms: _20  and  _21
REMARK    9  A    between atoms: _20  and  _23
REMARK   10  A    between atoms: _23  and  _24
REMARK   11  A    between atoms: _27  and  _29
REMARK   12  A    between atoms: _29  and  _30
REMARK   13  A    between atoms: _29  and  _32
REMARK   14  A    between atoms: _32  and  _33
REMARK   15  A    between atoms: _36  and  _38
REMARK   16  A    between atoms: _38  and  _39
REMARK   17  A    between atoms: _38  and  _41
REMARK   18  A    between atoms: _41  and  _42
REMARK   19  A    between atoms: _45  and  _47
REMARK   20  A    between atoms: _47  and  _48
REMARK   21  A    between atoms: _47  and  _50
REMARK   22  A    between atoms: _50  and  _51
REMARK   23  A    between atoms: _54  and  _56
REMARK   24  A    between atoms: _56  and  _57
REMARK   25  A    between atoms: _59  and  _61
REMARK   26  A    between atoms: _61  and  _62
REMARK   27  A    between atoms: _65  and  _67
REMARK   28  A    between atoms: _67  and  _68
REMARK   29  A    between atoms: _67  and  _70
REMARK   30  A    between atoms: _70  and  _71
REMARK   31  A    between atoms: _74  and  _76
REMARK   32  A    between atoms: _76  and  _77
REMARK   33  A    between atoms: _76  and  _79
REMARK   34  A    between atoms: _79  and  _80
REMARK   35  A    between atoms: _83  and  _85
REMARK   36  A    between atoms: _85  and  _86
REMARK   37  A    between atoms: _85  and  _88
REMARK   38  A    between atoms: _88  and  _89
REMARK   39  A    between atoms: _92  and  _94
REMARK   40  A    between atoms: _94  and  _95
REMARK   41  A    between atoms: _94  and  _97
REMARK   42  A    between atoms: _100  and  _102
REMARK   43  A    between atoms: _102  and  _103
REMARK   44  A    between atoms: _102  and  _105
REMARK   45  A    between atoms: _105  and  _106
REMARK   46  A    between atoms: _106  and  _107
REMARK   47  A    between atoms: _107  and  _108
REMARK   48  A    between atoms: _108  and  _109
REMARK   49  A    between atoms: _113  and  _115
REMARK   50  A    between atoms: _115  and  _116
REMARK   51  A    between atoms: _115  and  _118
REMARK   52  A    between atoms: _118  and  _119
REMARK   53  A    between atoms: _119  and  _120
REMARK   54  A    between atoms: _122  and  _124
REMARK   55  A    between atoms: _124  and  _125
REMARK   56  A    between atoms: _124  and  _127
REMARK   57  A    between atoms: _127  and  _128
REMARK   58  A    between atoms: _131  and  _133
REMARK   59  A    between atoms: _133  and  _134
REMARK   60  A    between atoms: _136  and  _138
REMARK   61  A    between atoms: _138  and  _139
REMARK   62  A    between atoms: _141  and  _143
REMARK   63  A    between atoms: _143  and  _144
REMARK   64  A    between atoms: _143  and  _146
REMARK   65  A    between atoms: _146  and  _147
REMARK   66  A    between atoms: _150  and  _152
REMARK   67  A    between atoms: _152  and  _153
REMARK   68  A    between atoms: _155  and  _157
REMARK   69  A    between atoms: _157  and  _158
REMARK   70  A    between atoms: _160  and  _162
REMARK   71  A    between atoms: _162  and  _163
REMARK   72  A    between atoms: _162  and  _165
REMARK   73  A    between atoms: _165  and  _166
REMARK   74  A    between atoms: _172  and  _174
REMARK   75  A    between atoms: _174  and  _175
REMARK   76  A    between atoms: _174  and  _177
REMARK   77  A    between atoms: _177  and  _178
REMARK   78  A    between atoms: _181  and  _183
REMARK   79  A    between atoms: _183  and  _184
REMARK   80  A    between atoms: _183  and  _186
REMARK   81  A    between atoms: _189  and  _191
REMARK   82  A    between atoms: _191  and  _192
REMARK   83  A    between atoms: _191  and  _194
REMARK   84  A    between atoms: _194  and  _195
REMARK   85  A    between atoms: _198  and  _200
REMARK   86  A    between atoms: _200  and  _201
REMARK   87  A    between atoms: _200  and  _203
REMARK   88  A    between atoms: _203  and  _204
REMARK   89  A    between atoms: _208  and  _209
REMARK   90  A    between atoms: _214  and  _216
REMARK   91  A    between atoms: _216  and  _217
REMARK   92  A    between atoms: _216  and  _219
REMARK   93  A    between atoms: _219  and  _220
REMARK   94  A    between atoms: _223  and  _225
REMARK   95  A    between atoms: _225  and  _226
REMARK   96  A    between atoms: _225  and  _228
REMARK   97  A    between atoms: _228  and  _229
REMARK   98  A    between atoms: _234  and  _236
REMARK   99  A    between atoms: _236  and  _237
REMARK  100  A    between atoms: _236  and  _239
REMARK  101  A    between atoms: _242  and  _244
REMARK  102  A    between atoms: _244  and  _245
REMARK  103  A    between atoms: _244  and  _247
REMARK  104  A    between atoms: _247  and  _248
REMARK  105  A    between atoms: _251  and  _253
REMARK  106  A    between atoms: _253  and  _254
REMARK  107  A    between atoms: _256  and  _258
REMARK  108  A    between atoms: _258  and  _259
REMARK  109  A    between atoms: _258  and  _261
REMARK  110  A    between atoms: _261  and  _262
REMARK  111  A    between atoms: _262  and  _263
REMARK  112  A    between atoms: _263  and  _264
REMARK  113  A    between atoms: _273  and  _275
REMARK  114  A    between atoms: _275  and  _276
REMARK  115  A    between atoms: _275  and  _278
REMARK  116  A    between atoms: _278  and  _279
REMARK  117  A    between atoms: _284  and  _286
REMARK  118  A    between atoms: _286  and  _287
REMARK  119  A    between atoms: _286  and  _289
REMARK  120  A    between atoms: _289  and  _290
REMARK  121  A    between atoms: _290  and  _291
REMARK  122  A    between atoms: _291  and  _292
REMARK  123  A    between atoms: _302  and  _303
REMARK  124  A    between atoms: _308  and  _310
REMARK  125  A    between atoms: _310  and  _311
REMARK  126  A    between atoms: _310  and  _313
REMARK  127  A    between atoms: _313  and  _314
REMARK  128  A    between atoms: _317  and  _319
REMARK  129  A    between atoms: _319  and  _320
REMARK  130  A    between atoms: _319  and  _322
REMARK  131  A    between atoms: _322  and  _323
REMARK  132  A    between atoms: _326  and  _328
REMARK  133  A    between atoms: _328  and  _329
REMARK  134  A    between atoms: _328  and  _331
REMARK  135  A    between atoms: _331  and  _332
REMARK  136  A    between atoms: _335  and  _337
REMARK  137  A    between atoms: _337  and  _338
REMARK  138  A    between atoms: _337  and  _340
REMARK  139  A    between atoms: _340  and  _341
REMARK  140  A    between atoms: _344  and  _346
REMARK  141  A    between atoms: _346  and  _347
REMARK  142  A    between atoms: _346  and  _349
REMARK  143  A    between atoms: _349  and  _350
REMARK  144  A    between atoms: _353  and  _355
REMARK  145  A    between atoms: _355  and  _356
REMARK  146  A    between atoms: _358  and  _360
REMARK  147  A    between atoms: _360  and  _361
REMARK  148  A    between atoms: _364  and  _366
REMARK  149  A    between atoms: _366  and  _367
REMARK  150  A    between atoms: _366  and  _369
REMARK  151  A    between atoms: _369  and  _370
REMARK  152  A    between atoms: _373  and  _375
REMARK  153  A    between atoms: _375  and  _376
REMARK  154  A    between atoms: _375  and  _378
REMARK  155  A    between atoms: _378  and  _379
REMARK  156  A    between atoms: _382  and  _384
REMARK  157  A    between atoms: _384  and  _385
REMARK  158  A    between atoms: _384  and  _387
REMARK  159  A    between atoms: _387  and  _388
REMARK  160  A    between atoms: _391  and  _393
REMARK  161  A    between atoms: _393  and  _394
REMARK  162  A    between atoms: _393  and  _396
REMARK  163  A    between atoms: _399  and  _401
REMARK  164  A    between atoms: _401  and  _402
REMARK  165  A    between atoms: _401  and  _404
REMARK  166  A    between atoms: _404  and  _405
REMARK  167  A    between atoms: _405  and  _406
REMARK  168  A    between atoms: _406  and  _407
REMARK  169  A    between atoms: _407  and  _408
REMARK  170  A    between atoms: _412  and  _414
REMARK  171  A    between atoms: _414  and  _415
REMARK  172  A    between atoms: _414  and  _417
REMARK  173  A    between atoms: _417  and  _418
REMARK  174  A    between atoms: _418  and  _419
REMARK  175  A    between atoms: _421  and  _423
REMARK  176  A    between atoms: _423  and  _424
REMARK  177  A    between atoms: _423  and  _426
REMARK  178  A    between atoms: _426  and  _427
REMARK  179  A    between atoms: _430  and  _432
REMARK  180  A    between atoms: _432  and  _433
REMARK  181  A    between atoms: _435  and  _437
REMARK  182  A    between atoms: _437  and  _438
REMARK  183  A    between atoms: _440  and  _442
REMARK  184  A    between atoms: _442  and  _443
REMARK  185  A    between atoms: _442  and  _445
REMARK  186  A    between atoms: _445  and  _446
REMARK  187  A    between atoms: _449  and  _451
REMARK  188  A    between atoms: _451  and  _452
REMARK  189  A    between atoms: _454  and  _456
REMARK  190  A    between atoms: _456  and  _457
REMARK  191  A    between atoms: _459  and  _461
REMARK  192  A    between atoms: _461  and  _462
REMARK  193  A    between atoms: _461  and  _464
REMARK  194  A    between atoms: _464  and  _465
REMARK  195  A    between atoms: _471  and  _473
REMARK  196  A    between atoms: _473  and  _474
REMARK  197  A    between atoms: _473  and  _476
REMARK  198  A    between atoms: _476  and  _477
REMARK  199  A    between atoms: _480  and  _482
REMARK  200  A    between atoms: _482  and  _483
REMARK  201  A    between atoms: _482  and  _485
REMARK  202  A    between atoms: _488  and  _490
REMARK  203  A    between atoms: _490  and  _491
REMARK  204  A    between atoms: _490  and  _493
REMARK  205  A    between atoms: _493  and  _494
REMARK  206  A    between atoms: _497  and  _499
REMARK  207  A    between atoms: _499  and  _500
REMARK  208  A    between atoms: _499  and  _502
REMARK  209  A    between atoms: _502  and  _503
REMARK  210  A    between atoms: _507  and  _508
REMARK  211  A    between atoms: _513  and  _515
REMARK  212  A    between atoms: _515  and  _516
REMARK  213  A    between atoms: _515  and  _518
REMARK  214  A    between atoms: _518  and  _519
REMARK  215  A    between atoms: _522  and  _524
REMARK  216  A    between atoms: _524  and  _525
REMARK  217  A    between atoms: _524  and  _527
REMARK  218  A    between atoms: _527  and  _528
REMARK  219  A    between atoms: _533  and  _535
REMARK  220  A    between atoms: _535  and  _536
REMARK  221  A    between atoms: _535  and  _538
REMARK  222  A    between atoms: _541  and  _543
REMARK  223  A    between atoms: _543  and  _544
REMARK  224  A    between atoms: _543  and  _546
REMARK  225  A    between atoms: _546  and  _547
REMARK  226  A    between atoms: _550  and  _552
REMARK  227  A    between atoms: _552  and  _553
REMARK  228  A    between atoms: _555  and  _557
REMARK  229  A    between atoms: _557  and  _558
REMARK  230  A    between atoms: _557  and  _560
REMARK  231  A    between atoms: _560  and  _561
REMARK  232  A    between atoms: _561  and  _562
REMARK  233  A    between atoms: _562  and  _563
REMARK                            x       y       z     vdW  Elec       q    Type
REMARK                         _______ _______ _______ _____ _____    ______ ____
ROOT
ATOM      1  C   ARG A   1      10.476  33.177  -2.697  0.00  0.00    +0.241 C 
ATOM      2  N   PRO A   2      11.736  32.739  -2.544  0.00  0.00    -0.272 N 
ATOM      3  CD  PRO A   2      12.363  32.275  -1.291  0.00  0.00    +0.094 C 
ATOM      4  CG  PRO A   2      13.638  31.601  -1.789  0.00  0.00    +0.024 C 
ATOM      5  CB  PRO A   2      14.029  32.497  -2.939  0.00  0.00    +0.031 C 
ATOM      6  CA  PRO A   2      12.695  32.705  -3.650  0.00  0.00    +0.152 C 
ATOM      7  O   ARG A   1      10.048  33.580  -3.780  0.00  0.00    -0.273 OA
ENDROOT
BRANCH   6   8
ATOM      8  C   PRO A   2      12.376  31.573  -4.622  0.00  0.00    +0.241 C 
ATOM      9  O   PRO A   2      13.150  30.622  -4.763  0.00  0.00    -0.273 OA
ATOM     10  N   LEU A   3      11.226  31.683  -5.277  0.00  0.00    -0.298 N 
ATOM     11  H   LEU A   3      10.625  32.512  -5.098  0.00  0.00    +0.150 HD
BRANCH  10  12
ATOM     12  CA  LEU A   3      10.775  30.682  -6.240  0.00  0.00    +0.137 C 
BRANCH  12  13
ATOM     13  C   LEU A   3      11.339  30.978  -7.613  0.00  0.00    +0.227 C 
ATOM     14  O   LEU A   3      11.251  32.104  -8.097  0.00  0.00    -0.286 OA
ENDBRANCH  12  13
BRANCH  12  15
ATOM     15  CB  LEU A   3       9.248  30.667  -6.326  0.00  0.00    +0.028 C 
BRANCH  15  16
ATOM     16  CG  LEU A   3       8.463  30.015  -5.191  0.00  0.00    +0.002 C 
ATOM     17  CD2 LEU A   3       8.842  28.544  -5.080  0.00  0.00    +0.000 C 
ATOM     18  CD1 LEU A   3       6.974  30.156  -5.476  0.00  0.00    +0.000 C 
ENDBRANCH  15  16
ENDBRANCH  12  15
ENDBRANCH  10  12
ENDBRANCH   6   8
BRANCH   1  19
ATOM     19  CA  ARG A   1       9.577  33.159  -1.465  0.00  0.00    +0.145 C 
BRANCH  19  20
ATOM     20  N   ARG A   1       8.873  34.433  -1.353  0.00  0.00    -0.238 NA
ATOM     21  H   ARG A   1       7.834  34.457  -1.381  0.00  0.00    +0.142 HD
ENDBRANCH  19  20
BRANCH  19  22
ATOM     22  CB  ARG A   1       8.585  31.997  -1.582  0.00  0.00    +0.030 C 
BRANCH  22  23
ATOM     23  CG  ARG A   1       7.819  31.709  -0.312  0.00  0.00    +0.045 C 
BRANCH  23  24
ATOM     24  CD  ARG A   1       6.850  30.560  -0.506  0.00  0.00    +0.174 C 
BRANCH  24  25
ATOM     25  NE  ARG A   1       6.075  30.322   0.708  0.00  0.00    -0.265 N 
ATOM     26  HE  ARG A   1       6.406  30.766   1.588  0.00  0.00    +0.259 HD
ATOM     27  CZ  ARG A   1       4.976  29.577   0.767  0.00  0.00    +0.342 C 
ATOM     28  NH2 ARG A   1       4.337  29.435   1.920  0.00  0.00    -0.292 N 
ATOM     29 HH21 ARG A   1       4.696  29.906   2.775  0.00  0.00    +0.255 HD
ATOM     30 HH22 ARG A   1       3.477  28.853   1.969  0.00  0.00    +0.255 HD
ATOM     31  NH1 ARG A   1       4.509  28.985  -0.325  0.00  0.00    -0.292 N 
ATOM     32 HH11 ARG A   1       3.649  28.403  -0.273  0.00  0.00    +0.255 HD
ATOM     33 HH12 ARG A   1       5.003  29.103  -1.232  0.00  0.00    +0.255 HD
ENDBRANCH  24  25
ENDBRANCH  23  24
ENDBRANCH  22  23
ENDBRANCH  19  22
ENDBRANCH   1  19
TORSDOF 11
REMARK  Name = ../refined-set-2016/2xye/2xye_pocket.pdb
REMARK  233 active torsions:
REMARK  status: ('A' for Active; 'I' for Inactive)
REMARK    1  A    between atoms: _1  and  _3
REMARK    2  A    between atoms: _3  and  _4
REMARK    3  A    between atoms: _3  and  _6
REMARK    4  A    between atoms: _6  and  _7
REMARK    5  A    between atoms: _7  and  _8
REMARK    6  A    between atoms: _8  and  _9
REMARK    7  A    between atoms: _18  and  _20
REMARK    8  A    between atoms: _20  and  _21
REMARK    9  A    between atoms: _20  and  _23
REMARK   10  A    between atoms: _23  and  _24
REMARK   11  A    between atoms: _27  and  _29
REMARK   12  A    between atoms: _29  and  _30
REMARK   13  A    between atoms: _29  and  _32
REMARK   14  A    between atoms: _32  and  _33
REMARK   15  A    between atoms: _36  and  _38
REMARK   16  A    between atoms: _38  and  _39
REMARK   17  A    between atoms: _38  and  _41
REMARK   18  A    between atoms: _41  and  _42
REMARK   19  A    between atoms: _45  and  _47
REMARK   20  A    between atoms: _47  and  _48
REMARK   21  A    between atoms: _47  and  _50
REMARK   22  A    between atoms: _50  and  _51
REMARK   23  A    between atoms: _54  and  _56
REMARK   24  A    between atoms: _56  and  _57
REMARK   25  A    between atoms: _59  and  _61
REMARK   26  A    between atoms: _61  and  _62
REMARK   27  A    between atoms: _65  and  _67
REMARK   28  A    between atoms: _67  and  _68
REMARK   29  A    between atoms: _67  and  _70
REMARK   30  A    between atoms: _70  and  _71
REMARK   31  A    between atoms: _74  and  _76
REMARK   32  A    between atoms: _76  and  _77
REMARK   33  A    between atoms: _76  and  _79
REMARK   34  A    between atoms: _79  and  _80
REMARK   35  A    between atoms: _83  and  _85
REMARK   36  A    between atoms: _85  and  _86
REMARK   37  A    between atoms: _85  and  _88
REMARK   38  A    between atoms: _88  and  _89
REMARK   39  A    between atoms: _92  and  _94
REMARK   40  A    between atoms: _94  and  _95
REMARK   41  A    between atoms: _94  and  _97
REMARK   42  A    between atoms: _100  and  _102
REMARK   43  A    between atoms: _102  and  _103
REMARK   44  A    between atoms: _102  and  _105
REMARK   45  A    between atoms: _105  and  _106
REMARK   46  A    between atoms: _106  and  _107
REMARK   47  A    between atoms: _107  and  _108
REMARK   48  A    between atoms: _108  and  _109
REMARK   49  A    between atoms: _113  and  _115
REMARK   50  A    between atoms: _115  and  _116
REMARK   51  A    between atoms: _115  and  _118
REMARK   52  A    between atoms: _118  and  _119
REMARK   53  A    between atoms: _119  and  _120
REMARK   54  A    between atoms: _122  and  _124
REMARK   55  A    between atoms: _124  and  _125
REMARK   56  A    between atoms: _124  and  _127
REMARK   57  A    between atoms: _127  and  _128
REMARK   58  A    between atoms: _131  and  _133
REMARK   59  A    between atoms: _133  and  _134
REMARK   60  A    between atoms: _136  and  _138
REMARK   61  A    between atoms: _138  and  _139
REMARK   62  A    between atoms: _141  and  _143
REMARK   63  A    between atoms: _143  and  _144
REMARK   64  A    between atoms: _143  and  _146
REMARK   65  A    between atoms: _146  and  _147
REMARK   66  A    between atoms: _150  and  _152
REMARK   67  A    between atoms: _152  and  _153
REMARK   68  A    between atoms: _155  and  _157
REMARK   69  A    between atoms: _157  and  _158
REMARK   70  A    between atoms: _160  and  _162
REMARK   71  A    between atoms: _162  and  _163
REMARK   72  A    between atoms: _162  and  _165
REMARK   73  A    between atoms: _165  and  _166
REMARK   74  A    between atoms: _172  and  _174
REMARK   75  A    between atoms: _174  and  _175
REMARK   76  A    between atoms: _174  and  _177
REMARK   77  A    between atoms: _177  and  _178
REMARK   78  A    between atoms: _181  and  _183
REMARK   79  A    between atoms: _183  and  _184
REMARK   80  A    between atoms: _183  and  _186
REMARK   81  A    between atoms: _189  and  _191
REMARK   82  A    between atoms: _191  and  _192
REMARK   83  A    between atoms: _191  and  _194
REMARK   84  A    between atoms: _194  and  _195
REMARK   85  A    between atoms: _198  and  _200
REMARK   86  A    between atoms: _200  and  _201
REMARK   87  A    between atoms: _200  and  _203
REMARK   88  A    between atoms: _203  and  _204
REMARK   89  A    between atoms: _208  and  _209
REMARK   90  A    between atoms: _214  and  _216
REMARK   91  A    between atoms: _216  and  _217
REMARK   92  A    between atoms: _216  and  _219
REMARK   93  A    between atoms: _219  and  _220
REMARK   94  A    between atoms: _223  and  _225
REMARK   95  A    between atoms: _225  and  _226
REMARK   96  A    between atoms: _225  and  _228
REMARK   97  A    between atoms: _228  and  _229
REMARK   98  A    between atoms: _234  and  _236
REMARK   99  A    between atoms: _236  and  _237
REMARK  100  A    between atoms: _236  and  _239
REMARK  101  A    between atoms: _242  and  _244
REMARK  102  A    between atoms: _244  and  _245
REMARK  103  A    between atoms: _244  and  _247
REMARK  104  A    between atoms: _247  and  _248
REMARK  105  A    between atoms: _251  and  _253
REMARK  106  A    between atoms: _253  and  _254
REMARK  107  A    between atoms: _256  and  _258
REMARK  108  A    between atoms: _258  and  _259
REMARK  109  A    between atoms: _258  and  _261
REMARK  110  A    between atoms: _261  and  _262
REMARK  111  A    between atoms: _262  and  _263
REMARK  112  A    between atoms: _263  and  _264
REMARK  113  A    between atoms: _273  and  _275
REMARK  114  A    between atoms: _275  and  _276
REMARK  115  A    between atoms: _275  and  _278
REMARK  116  A    between atoms: _278  and  _279
REMARK  117  A    between atoms: _284  and  _286
REMARK  118  A    between atoms: _286  and  _287
REMARK  119  A    between atoms: _286  and  _289
REMARK  120  A    between atoms: _289  and  _290
REMARK  121  A    between atoms: _290  and  _291
REMARK  122  A    between atoms: _291  and  _292
REMARK  123  A    between atoms: _302  and  _303
REMARK  124  A    between atoms: _308  and  _310
REMARK  125  A    between atoms: _310  and  _311
REMARK  126  A    between atoms: _310  and  _313
REMARK  127  A    between atoms: _313  and  _314
REMARK  128  A    between atoms: _317  and  _319
REMARK  129  A    between atoms: _319  and  _320
REMARK  130  A    between atoms: _319  and  _322
REMARK  131  A    between atoms: _322  and  _323
REMARK  132  A    between atoms: _326  and  _328
REMARK  133  A    between atoms: _328  and  _329
REMARK  134  A    between atoms: _328  and  _331
REMARK  135  A    between atoms: _331  and  _332
REMARK  136  A    between atoms: _335  and  _337
REMARK  137  A    between atoms: _337  and  _338
REMARK  138  A    between atoms: _337  and  _340
REMARK  139  A    between atoms: _340  and  _341
REMARK  140  A    between atoms: _344  and  _346
REMARK  141  A    between atoms: _346  and  _347
REMARK  142  A    between atoms: _346  and  _349
REMARK  143  A    between atoms: _349  and  _350
REMARK  144  A    between atoms: _353  and  _355
REMARK  145  A    between atoms: _355  and  _356
REMARK  146  A    between atoms: _358  and  _360
REMARK  147  A    between atoms: _360  and  _361
REMARK  148  A    between atoms: _364  and  _366
REMARK  149  A    between atoms: _366  and  _367
REMARK  150  A    between atoms: _366  and  _369
REMARK  151  A    between atoms: _369  and  _370
REMARK  152  A    between atoms: _373  and  _375
REMARK  153  A    between atoms: _375  and  _376
REMARK  154  A    between atoms: _375  and  _378
REMARK  155  A    between atoms: _378  and  _379
REMARK  156  A    between atoms: _382  and  _384
REMARK  157  A    between atoms: _384  and  _385
REMARK  158  A    between atoms: _384  and  _387
REMARK  159  A    between atoms: _387  and  _388
REMARK  160  A    between atoms: _391  and  _393
REMARK  161  A    between atoms: _393  and  _394
REMARK  162  A    between atoms: _393  and  _396
REMARK  163  A    between atoms: _399  and  _401
REMARK  164  A    between atoms: _401  and  _402
REMARK  165  A    between atoms: _401  and  _404
REMARK  166  A    between atoms: _404  and  _405
REMARK  167  A    between atoms: _405  and  _406
REMARK  168  A    between atoms: _406  and  _407
REMARK  169  A    between atoms: _407  and  _408
REMARK  170  A    between atoms: _412  and  _414
REMARK  171  A    between atoms: _414  and  _415
REMARK  172  A    between atoms: _414  and  _417
REMARK  173  A    between atoms: _417  and  _418
REMARK  174  A    between atoms: _418  and  _419
REMARK  175  A    between atoms: _421  and  _423
REMARK  176  A    between atoms: _423  and  _424
REMARK  177  A    between atoms: _423  and  _426
REMARK  178  A    between atoms: _426  and  _427
REMARK  179  A    between atoms: _430  and  _432
REMARK  180  A    between atoms: _432  and  _433
REMARK  181  A    between atoms: _435  and  _437
REMARK  182  A    between atoms: _437  and  _438
REMARK  183  A    between atoms: _440  and  _442
REMARK  184  A    between atoms: _442  and  _443
REMARK  185  A    between atoms: _442  and  _445
REMARK  186  A    between atoms: _445  and  _446
REMARK  187  A    between atoms: _449  and  _451
REMARK  188  A    between atoms: _451  and  _452
REMARK  189  A    between atoms: _454  and  _456
REMARK  190  A    between atoms: _456  and  _457
REMARK  191  A    between atoms: _459  and  _461
REMARK  192  A    between atoms: _461  and  _462
REMARK  193  A    between atoms: _461  and  _464
REMARK  194  A    between atoms: _464  and  _465
REMARK  195  A    between atoms: _471  and  _473
REMARK  196  A    between atoms: _473  and  _474
REMARK  197  A    between atoms: _473  and  _476
REMARK  198  A    between atoms: _476  and  _477
REMARK  199  A    between atoms: _480  and  _482
REMARK  200  A    between atoms: _482  and  _483
REMARK  201  A    between atoms: _482  and  _485
REMARK  202  A    between atoms: _488  and  _490
REMARK  203  A    between atoms: _490  and  _491
REMARK  204  A    between atoms: _490  and  _493
REMARK  205  A    between atoms: _493  and  _494
REMARK  206  A    between atoms: _497  and  _499
REMARK  207  A    between atoms: _499  and  _500
REMARK  208  A    between atoms: _499  and  _502
REMARK  209  A    between atoms: _502  and  _503
REMARK  210  A    between atoms: _507  and  _508
REMARK  211  A    between atoms: _513  and  _515
REMARK  212  A    between atoms: _515  and  _516
REMARK  213  A    between atoms: _515  and  _518
REMARK  214  A    between atoms: _518  and  _519
REMARK  215  A    between atoms: _522  and  _524
REMARK  216  A    between atoms: _524  and  _525
REMARK  217  A    between atoms: _524  and  _527
REMARK  218  A    between atoms: _527  and  _528
REMARK  219  A    between atoms: _533  and  _535
REMARK  220  A    between atoms: _535  and  _536
REMARK  221  A    between atoms: _535  and  _538
REMARK  222  A    between atoms: _541  and  _543
REMARK  223  A    between atoms: _543  and  _544
REMARK  224  A    between atoms: _543  and  _546
REMARK  225  A    between atoms: _546  and  _547
REMARK  226  A    between atoms: _550  and  _552
REMARK  227  A    between atoms: _552  and  _553
REMARK  228  A    between atoms: _555  and  _557
REMARK  229  A    between atoms: _557  and  _558
REMARK  230  A    between atoms: _557  and  _560
REMARK  231  A    between atoms: _560  and  _561
REMARK  232  A    between atoms: _561  and  _562
REMARK  233  A    between atoms: _562  and  _563
REMARK                            x       y       z     vdW  Elec       q    Type
REMARK                         _______ _______ _______ _____ _____    ______ ____
ROOT
ATOM      1  C   GLY A   5      18.476  23.984   4.437  0.00  0.00    +0.243 C 
ATOM      2  O   GLY A   5      18.326  23.150   5.329  0.00  0.00    -0.273 OA
ATOM      3  N   ALA A   6      18.554  23.655   3.152  0.00  0.00    -0.297 N 
ATOM      4  H   ALA A   6      18.684  24.405   2.444  0.00  0.00    +0.150 HD
ENDROOT
BRANCH   3   5
ATOM      5  CA  ALA A   6      18.462  22.269   2.710  0.00  0.00    +0.149 C 
ATOM      6  CB  ALA A   6      17.420  22.150   1.597  0.00  0.00    +0.031 C 
BRANCH   5   7
ATOM      7  C   ALA A   6      19.810  21.749   2.214  0.00  0.00    +0.241 C 
ATOM      8  N   ASP A   7      20.240  20.596   2.725  0.00  0.00    -0.297 N 
ATOM      9  H   ASP A   7      19.673  20.107   3.447  0.00  0.00    +0.150 HD
ATOM     10  O   ALA A   6      20.460  22.391   1.390  0.00  0.00    -0.273 OA
BRANCH   8  11
ATOM     11  CA  ASP A   7      21.506  20.013   2.276  0.00  0.00    +0.160 C 
BRANCH  11  12
ATOM     12  C   ASP A   7      21.310  19.476   0.865  0.00  0.00    +0.241 C 
ATOM     13  N   ASP A   8      20.128  18.912   0.637  0.00  0.00    -0.297 N 
ATOM     14  H   ASP A   8      19.415  18.918   1.394  0.00  0.00    +0.150 HD
ATOM     15  O   ASP A   7      22.204  19.561   0.013  0.00  0.00    -0.273 OA
BRANCH  13  16
ATOM     16  CA  ASP A   8      19.797  18.287  -0.632  0.00  0.00    +0.160 C 
BRANCH  16  17
ATOM     17  C   ASP A   8      18.662  18.950  -1.401  0.00  0.00    +0.241 C 
ATOM     18  O   ASP A   8      17.949  19.806  -0.882  0.00  0.00    -0.273 OA
ATOM     19  N   THR A   9      18.502  18.503  -2.644  0.00  0.00    -0.295 N 
ATOM     20  H   THR A   9      19.153  17.770  -2.991  0.00  0.00    +0.150 HD
BRANCH  19  21
ATOM     21  CA  THR A   9      17.465  18.984  -3.544  0.00  0.00    +0.176 C 
BRANCH  21  22
ATOM     22  C   THR A   9      16.388  17.904  -3.612  0.00  0.00    +0.243 C 
ATOM     23  N   VAL A  10      15.154  18.262  -3.281  0.00  0.00    -0.298 N 
ATOM     24  H   VAL A  10      14.957  19.242  -2.995  0.00  0.00    +0.150 HD
ATOM     25  O   THR A   9      16.675  16.751  -3.948  0.00  0.00    -0.273 OA
BRANCH  23  26
ATOM     26  CA  VAL A  10      14.078  17.288  -3.318  0.00  0.00    +0.137 C 
BRANCH  26  27
ATOM     27  CB  VAL A  10      13.579  16.929  -1.884  0.00  0.00    +0.026 C 
ATOM     28  CG2 VAL A  10      12.758  18.055  -1.304  0.00  0.00    +0.002 C 
ATOM     29  CG1 VAL A  10      12.759  15.650  -1.922  0.00  0.00    +0.002 C 
ENDBRANCH  26  27
BRANCH  26  30
ATOM     30  C   VAL A  10      12.931  17.816  -4.171  0.00  0.00    +0.227 C 
ATOM     31  O   VAL A  10      12.438  18.925  -3.970  0.00  0.00    -0.286 OA
ENDBRANCH  26  30
ENDBRANCH  23  26
ENDBRANCH  21  22
BRANCH  21  32
ATOM     32  CB  THR A   9      18.043  19.224  -4.953  0.00  0.00    +0.137 C 
ATOM     33  CG2 THR A   9      16.932  19.495  -5.961  0.00  0.00    +0.034 C 
BRANCH  32  34
ATOM     34  OG1 THR A   9      18.947  20.337  -4.911  0.00  0.00    -0.382 OA
ATOM     35  HG1 THR A   9      19.683  20.139  -4.279  0.00  0.00    +0.210 HD
ENDBRANCH  32  34
ENDBRANCH  21  32
ENDBRANCH  19  21
ENDBRANCH  16  17
BRANCH  16  36
ATOM     36  CB  ASP A   8      19.412  16.822  -0.400  0.00  0.00    +0.143 C 
BRANCH  36  37
ATOM     37  CG  ASP A   8      20.396  16.083   0.486  0.00  0.00    +0.367 C 
ATOM     38  OD2 ASP A   8      19.950  15.454   1.471  0.00  0.00    -0.246 OA
ATOM     39  OD1 ASP A   8      21.608  16.116   0.195  0.00  0.00    -0.246 OA
ENDBRANCH  36  37
ENDBRANCH  16  36
ENDBRANCH  13  16
ENDBRANCH  11  12
BRANCH  11  40
ATOM     40  CB  ASP A   7      21.928  18.819   3.138  0.00  0.00    +0.143 C 
BRANCH  40  41
ATOM     41  CG  ASP A   7      22.378  19.203   4.535  0.00  0.00    +0.367 C 
ATOM     42  OD2 ASP A   7      22.535  18.269   5.349  0.00  0.00    -0.246 OA
ATOM     43  OD1 ASP A   7      22.591  20.399   4.829  0.00  0.00    -0.246 OA
ENDBRANCH  40  41
ENDBRANCH  11  40
ENDBRANCH   8  11
ENDBRANCH   5   7
ENDBRANCH   3   5
BRANCH   1  44
ATOM     44  CA  GLY A   5      18.581  25.462   4.770  0.00  0.00    +0.176 C 
BRANCH  44  47
ATOM     45  C   THR A   4      19.863  26.602   3.081  0.00  0.00    +0.243 C 
ATOM     46  O   THR A   4      20.920  26.222   3.588  0.00  0.00    -0.273 OA
ATOM     47  N   GLY A   5      18.675  26.290   3.583  0.00  0.00    -0.295 N 
ATOM     48  H   GLY A   5      17.810  26.640   3.124  0.00  0.00    +0.150 HD
BRANCH  45  49
ATOM     49  CA  THR A   4      19.870  27.461   1.817  0.00  0.00    +0.176 C 
BRANCH  49  51
ATOM     50  C   ASP A   3      17.968  26.557   0.607  0.00  0.00    +0.241 C 
ATOM     51  N   THR A   4      18.551  27.587   1.212  0.00  0.00    -0.295 N 
ATOM     52  H   THR A   4      18.056  28.501   1.254  0.00  0.00    +0.150 HD
ATOM     53  O   ASP A   3      18.486  25.440   0.557  0.00  0.00    -0.273 OA
BRANCH  50  54
ATOM     54  CA  ASP A   3      16.580  26.807   0.001  0.00  0.00    +0.160 C 
BRANCH  54  57
ATOM     55  C   LEU A   2      16.108  28.139  -1.992  0.00  0.00    +0.241 C 
ATOM     56  O   LEU A   2      15.758  29.112  -1.326  0.00  0.00    -0.273 OA
ATOM     57  N   ASP A   3      16.551  27.011  -1.447  0.00  0.00    -0.297 N 
ATOM     58  H   ASP A   3      16.888  26.249  -2.070  0.00  0.00    +0.150 HD
BRANCH  55  59
ATOM     59  CA  LEU A   2      16.049  28.180  -3.516  0.00  0.00    +0.149 C 
BRANCH  59  62
ATOM     60  C   LEU A   1      13.910  27.055  -3.748  0.00  0.00    +0.238 C 
ATOM     61  O   LEU A   1      14.421  25.969  -3.484  0.00  0.00    -0.274 OA
ATOM     62  N   LEU A   2      14.616  28.180  -3.812  0.00  0.00    -0.297 N 
ATOM     63  H   LEU A   2      14.145  29.069  -4.075  0.00  0.00    +0.150 HD
BRANCH  60  64
ATOM     64  CA  LEU A   1      12.407  27.157  -4.022  0.00  0.00    +0.145 C 
BRANCH  64  65
ATOM     65  N   LEU A   1      11.960  26.202  -5.017  0.00  0.00    -0.238 NA
ATOM     66  H   LEU A   1      11.764  25.224  -4.723  0.00  0.00    +0.142 HD
ENDBRANCH  64  65
BRANCH  64  67
ATOM     67  CB  LEU A   1      11.640  26.905  -2.726  0.00  0.00    +0.026 C 
BRANCH  67  68
ATOM     68  CG  LEU A   1      11.671  27.959  -1.628  0.00  0.00    +0.002 C 
ATOM     69  CD2 LEU A   1      11.036  27.368  -0.393  0.00  0.00    +0.000 C 
ATOM     70  CD1 LEU A   1      10.913  29.203  -2.064  0.00  0.00    +0.000 C 
ENDBRANCH  67  68
ENDBRANCH  64  67
ENDBRANCH  60  64
ENDBRANCH  59  62
BRANCH  59  71
ATOM     71  CB  LEU A   2      16.708  29.452  -4.047  0.00  0.00    +0.029 C 
BRANCH  71  72
ATOM     72  CG  LEU A   2      16.564  29.665  -5.557  0.00  0.00    +0.002 C 
ATOM     73  CD2 LEU A   2      17.334  30.916  -5.967  0.00  0.00    +0.000 C 
ATOM     74  CD1 LEU A   2      17.090  28.440  -6.308  0.00  0.00    +0.000 C 
ENDBRANCH  71  72
ENDBRANCH  59  71
ENDBRANCH  55  59
ENDBRANCH  54  57
BRANCH  54  75
ATOM     75  CB  ASP A   3      15.666  25.620   0.325  0.00  0.00    +0.143 C 
BRANCH  75  76
ATOM     76  CG  ASP A   3      15.250  25.576   1.777  0.00  0.00    +0.367 C 
ATOM     77  OD2 ASP A   3      16.110  25.783   2.650  0.00  0.00    -0.246 OA
ATOM     78  OD1 ASP A   3      14.057  25.319   2.043  0.00  0.00    -0.246 OA
ENDBRANCH  75  76
ENDBRANCH  54  75
ENDBRANCH  50  54
ENDBRANCH  49  51
BRANCH  49  79
ATOM     79  CB  THR A   4      20.458  28.837   2.160  0.00  0.00    +0.137 C 
ATOM     80  CG2 THR A   4      20.622  29.670   0.898  0.00  0.00    +0.034 C 
BRANCH  79  81
ATOM     81  OG1 THR A   4      19.587  29.515   3.071  0.00  0.00    -0.382 OA
ATOM     82  HG1 THR A   4      19.495  28.979   3.898  0.00  0.00    +0.210 HD
ENDBRANCH  79  81
ENDBRANCH  49  79
ENDBRANCH  45  49
ENDBRANCH  44  47
ENDBRANCH   1  44
TORSDOF 35
REMARK  Name = ../refined-set-2016/2xye/2xye_pocket.pdb
REMARK  233 active torsions:
REMARK  status: ('A' for Active; 'I' for Inactive)
REMARK    1  A    between atoms: _1  and  _3
REMARK    2  A    between atoms: _3  and  _4
REMARK    3  A    between atoms: _3  and  _6
REMARK    4  A    between atoms: _6  and  _7
REMARK    5  A    between atoms: _7  and  _8
REMARK    6  A    between atoms: _8  and  _9
REMARK    7  A    between atoms: _18  and  _20
REMARK    8  A    between atoms: _20  and  _21
REMARK    9  A    between atoms: _20  and  _23
REMARK   10  A    between atoms: _23  and  _24
REMARK   11  A    between atoms: _27  and  _29
REMARK   12  A    between atoms: _29  and  _30
REMARK   13  A    between atoms: _29  and  _32
REMARK   14  A    between atoms: _32  and  _33
REMARK   15  A    between atoms: _36  and  _38
REMARK   16  A    between atoms: _38  and  _39
REMARK   17  A    between atoms: _38  and  _41
REMARK   18  A    between atoms: _41  and  _42
REMARK   19  A    between atoms: _45  and  _47
REMARK   20  A    between atoms: _47  and  _48
REMARK   21  A    between atoms: _47  and  _50
REMARK   22  A    between atoms: _50  and  _51
REMARK   23  A    between atoms: _54  and  _56
REMARK   24  A    between atoms: _56  and  _57
REMARK   25  A    between atoms: _59  and  _61
REMARK   26  A    between atoms: _61  and  _62
REMARK   27  A    between atoms: _65  and  _67
REMARK   28  A    between atoms: _67  and  _68
REMARK   29  A    between atoms: _67  and  _70
REMARK   30  A    between atoms: _70  and  _71
REMARK   31  A    between atoms: _74  and  _76
REMARK   32  A    between atoms: _76  and  _77
REMARK   33  A    between atoms: _76  and  _79
REMARK   34  A    between atoms: _79  and  _80
REMARK   35  A    between atoms: _83  and  _85
REMARK   36  A    between atoms: _85  and  _86
REMARK   37  A    between atoms: _85  and  _88
REMARK   38  A    between atoms: _88  and  _89
REMARK   39  A    between atoms: _92  and  _94
REMARK   40  A    between atoms: _94  and  _95
REMARK   41  A    between atoms: _94  and  _97
REMARK   42  A    between atoms: _100  and  _102
REMARK   43  A    between atoms: _102  and  _103
REMARK   44  A    between atoms: _102  and  _105
REMARK   45  A    between atoms: _105  and  _106
REMARK   46  A    between atoms: _106  and  _107
REMARK   47  A    between atoms: _107  and  _108
REMARK   48  A    between atoms: _108  and  _109
REMARK   49  A    between atoms: _113  and  _115
REMARK   50  A    between atoms: _115  and  _116
REMARK   51  A    between atoms: _115  and  _118
REMARK   52  A    between atoms: _118  and  _119
REMARK   53  A    between atoms: _119  and  _120
REMARK   54  A    between atoms: _122  and  _124
REMARK   55  A    between atoms: _124  and  _125
REMARK   56  A    between atoms: _124  and  _127
REMARK   57  A    between atoms: _127  and  _128
REMARK   58  A    between atoms: _131  and  _133
REMARK   59  A    between atoms: _133  and  _134
REMARK   60  A    between atoms: _136  and  _138
REMARK   61  A    between atoms: _138  and  _139
REMARK   62  A    between atoms: _141  and  _143
REMARK   63  A    between atoms: _143  and  _144
REMARK   64  A    between atoms: _143  and  _146
REMARK   65  A    between atoms: _146  and  _147
REMARK   66  A    between atoms: _150  and  _152
REMARK   67  A    between atoms: _152  and  _153
REMARK   68  A    between atoms: _155  and  _157
REMARK   69  A    between atoms: _157  and  _158
REMARK   70  A    between atoms: _160  and  _162
REMARK   71  A    between atoms: _162  and  _163
REMARK   72  A    between atoms: _162  and  _165
REMARK   73  A    between atoms: _165  and  _166
REMARK   74  A    between atoms: _172  and  _174
REMARK   75  A    between atoms: _174  and  _175
REMARK   76  A    between atoms: _174  and  _177
REMARK   77  A    between atoms: _177  and  _178
REMARK   78  A    between atoms: _181  and  _183
REMARK   79  A    between atoms: _183  and  _184
REMARK   80  A    between atoms: _183  and  _186
REMARK   81  A    between atoms: _189  and  _191
REMARK   82  A    between atoms: _191  and  _192
REMARK   83  A    between atoms: _191  and  _194
REMARK   84  A    between atoms: _194  and  _195
REMARK   85  A    between atoms: _198  and  _200
REMARK   86  A    between atoms: _200  and  _201
REMARK   87  A    between atoms: _200  and  _203
REMARK   88  A    between atoms: _203  and  _204
REMARK   89  A    between atoms: _208  and  _209
REMARK   90  A    between atoms: _214  and  _216
REMARK   91  A    between atoms: _216  and  _217
REMARK   92  A    between atoms: _216  and  _219
REMARK   93  A    between atoms: _219  and  _220
REMARK   94  A    between atoms: _223  and  _225
REMARK   95  A    between atoms: _225  and  _226
REMARK   96  A    between atoms: _225  and  _228
REMARK   97  A    between atoms: _228  and  _229
REMARK   98  A    between atoms: _234  and  _236
REMARK   99  A    between atoms: _236  and  _237
REMARK  100  A    between atoms: _236  and  _239
REMARK  101  A    between atoms: _242  and  _244
REMARK  102  A    between atoms: _244  and  _245
REMARK  103  A    between atoms: _244  and  _247
REMARK  104  A    between atoms: _247  and  _248
REMARK  105  A    between atoms: _251  and  _253
REMARK  106  A    between atoms: _253  and  _254
REMARK  107  A    between atoms: _256  and  _258
REMARK  108  A    between atoms: _258  and  _259
REMARK  109  A    between atoms: _258  and  _261
REMARK  110  A    between atoms: _261  and  _262
REMARK  111  A    between atoms: _262  and  _263
REMARK  112  A    between atoms: _263  and  _264
REMARK  113  A    between atoms: _273  and  _275
REMARK  114  A    between atoms: _275  and  _276
REMARK  115  A    between atoms: _275  and  _278
REMARK  116  A    between atoms: _278  and  _279
REMARK  117  A    between atoms: _284  and  _286
REMARK  118  A    between atoms: _286  and  _287
REMARK  119  A    between atoms: _286  and  _289
REMARK  120  A    between atoms: _289  and  _290
REMARK  121  A    between atoms: _290  and  _291
REMARK  122  A    between atoms: _291  and  _292
REMARK  123  A    between atoms: _302  and  _303
REMARK  124  A    between atoms: _308  and  _310
REMARK  125  A    between atoms: _310  and  _311
REMARK  126  A    between atoms: _310  and  _313
REMARK  127  A    between atoms: _313  and  _314
REMARK  128  A    between atoms: _317  and  _319
REMARK  129  A    between atoms: _319  and  _320
REMARK  130  A    between atoms: _319  and  _322
REMARK  131  A    between atoms: _322  and  _323
REMARK  132  A    between atoms: _326  and  _328
REMARK  133  A    between atoms: _328  and  _329
REMARK  134  A    between atoms: _328  and  _331
REMARK  135  A    between atoms: _331  and  _332
REMARK  136  A    between atoms: _335  and  _337
REMARK  137  A    between atoms: _337  and  _338
REMARK  138  A    between atoms: _337  and  _340
REMARK  139  A    between atoms: _340  and  _341
REMARK  140  A    between atoms: _344  and  _346
REMARK  141  A    between atoms: _346  and  _347
REMARK  142  A    between atoms: _346  and  _349
REMARK  143  A    between atoms: _349  and  _350
REMARK  144  A    between atoms: _353  and  _355
REMARK  145  A    between atoms: _355  and  _356
REMARK  146  A    between atoms: _358  and  _360
REMARK  147  A    between atoms: _360  and  _361
REMARK  148  A    between atoms: _364  and  _366
REMARK  149  A    between atoms: _366  and  _367
REMARK  150  A    between atoms: _366  and  _369
REMARK  151  A    between atoms: _369  and  _370
REMARK  152  A    between atoms: _373  and  _375
REMARK  153  A    between atoms: _375  and  _376
REMARK  154  A    between atoms: _375  and  _378
REMARK  155  A    between atoms: _378  and  _379
REMARK  156  A    between atoms: _382  and  _384
REMARK  157  A    between atoms: _384  and  _385
REMARK  158  A    between atoms: _384  and  _387
REMARK  159  A    between atoms: _387  and  _388
REMARK  160  A    between atoms: _391  and  _393
REMARK  161  A    between atoms: _393  and  _394
REMARK  162  A    between atoms: _393  and  _396
REMARK  163  A    between atoms: _399  and  _401
REMARK  164  A    between atoms: _401  and  _402
REMARK  165  A    between atoms: _401  and  _404
REMARK  166  A    between atoms: _404  and  _405
REMARK  167  A    between atoms: _405  and  _406
REMARK  168  A    between atoms: _406  and  _407
REMARK  169  A    between atoms: _407  and  _408
REMARK  170  A    between atoms: _412  and  _414
REMARK  171  A    between atoms: _414  and  _415
REMARK  172  A    between atoms: _414  and  _417
REMARK  173  A    between atoms: _417  and  _418
REMARK  174  A    between atoms: _418  and  _419
REMARK  175  A    between atoms: _421  and  _423
REMARK  176  A    between atoms: _423  and  _424
REMARK  177  A    between atoms: _423  and  _426
REMARK  178  A    between atoms: _426  and  _427
REMARK  179  A    between atoms: _430  and  _432
REMARK  180  A    between atoms: _432  and  _433
REMARK  181  A    between atoms: _435  and  _437
REMARK  182  A    between atoms: _437  and  _438
REMARK  183  A    between atoms: _440  and  _442
REMARK  184  A    between atoms: _442  and  _443
REMARK  185  A    between atoms: _442  and  _445
REMARK  186  A    between atoms: _445  and  _446
REMARK  187  A    between atoms: _449  and  _451
REMARK  188  A    between atoms: _451  and  _452
REMARK  189  A    between atoms: _454  and  _456
REMARK  190  A    between atoms: _456  and  _457
REMARK  191  A    between atoms: _459  and  _461
REMARK  192  A    between atoms: _461  and  _462
REMARK  193  A    between atoms: _461  and  _464
REMARK  194  A    between atoms: _464  and  _465
REMARK  195  A    between atoms: _471  and  _473
REMARK  196  A    between atoms: _473  and  _474
REMARK  197  A    between atoms: _473  and  _476
REMARK  198  A    between atoms: _476  and  _477
REMARK  199  A    between atoms: _480  and  _482
REMARK  200  A    between atoms: _482  and  _483
REMARK  201  A    between atoms: _482  and  _485
REMARK  202  A    between atoms: _488  and  _490
REMARK  203  A    between atoms: _490  and  _491
REMARK  204  A    between atoms: _490  and  _493
REMARK  205  A    between atoms: _493  and  _494
REMARK  206  A    between atoms: _497  and  _499
REMARK  207  A    between atoms: _499  and  _500
REMARK  208  A    between atoms: _499  and  _502
REMARK  209  A    between atoms: _502  and  _503
REMARK  210  A    between atoms: _507  and  _508
REMARK  211  A    between atoms: _513  and  _515
REMARK  212  A    between atoms: _515  and  _516
REMARK  213  A    between atoms: _515  and  _518
REMARK  214  A    between atoms: _518  and  _519
REMARK  215  A    between atoms: _522  and  _524
REMARK  216  A    between atoms: _524  and  _525
REMARK  217  A    between atoms: _524  and  _527
REMARK  218  A    between atoms: _527  and  _528
REMARK  219  A    between atoms: _533  and  _535
REMARK  220  A    between atoms: _535  and  _536
REMARK  221  A    between atoms: _535  and  _538
REMARK  222  A    between atoms: _541  and  _543
REMARK  223  A    between atoms: _543  and  _544
REMARK  224  A    between atoms: _543  and  _546
REMARK  225  A    between atoms: _546  and  _547
REMARK  226  A    between atoms: _550  and  _552
REMARK  227  A    between atoms: _552  and  _553
REMARK  228  A    between atoms: _555  and  _557
REMARK  229  A    between atoms: _557  and  _558
REMARK  230  A    between atoms: _557  and  _560
REMARK  231  A    between atoms: _560  and  _561
REMARK  232  A    between atoms: _561  and  _562
REMARK  233  A    between atoms: _562  and  _563
REMARK                            x       y       z     vdW  Elec       q    Type
REMARK                         _______ _______ _______ _____ _____    ______ ____
ROOT
ATOM      1  C   GLY A   5      12.097  18.354   9.031  0.00  0.00    +0.243 C 
ATOM      2  O   GLY A   5      12.160  17.650  10.039  0.00  0.00    -0.273 OA
ATOM      3  N   ILE A   6      11.491  19.534   9.027  0.00  0.00    -0.297 N 
ATOM      4  H   ILE A   6      11.440  20.082   8.145  0.00  0.00    +0.150 HD
ENDROOT
BRANCH   3   5
ATOM      5  CA  ILE A   6      10.896  20.071  10.242  0.00  0.00    +0.149 C 
BRANCH   5   6
ATOM      6  C   ILE A   6       9.823  19.157  10.827  0.00  0.00    +0.241 C 
ATOM      7  O   ILE A   6       9.684  19.059  12.045  0.00  0.00    -0.273 OA
ATOM      8  N   GLY A   7       9.074  18.480   9.963  0.00  0.00    -0.295 N 
ATOM      9  H   GLY A   7       9.244  18.576   8.942  0.00  0.00    +0.150 HD
BRANCH   8  10
ATOM     10  CA  GLY A   7       8.017  17.605  10.443  0.00  0.00    +0.176 C 
BRANCH  10  11
ATOM     11  C   GLY A   7       8.401  16.160  10.704  0.00  0.00    +0.243 C 
ATOM     12  O   GLY A   7       7.602  15.394  11.240  0.00  0.00    -0.273 OA
ATOM     13  N   GLY A   8       9.614  15.775  10.330  0.00  0.00    -0.295 N 
ATOM     14  H   GLY A   8      10.262  16.454   9.882  0.00  0.00    +0.150 HD
BRANCH  13  15
ATOM     15  CA  GLY A   8      10.033  14.404  10.548  0.00  0.00    +0.176 C 
BRANCH  15  16
ATOM     16  C   GLY A   8      10.778  13.840   9.359  0.00  0.00    +0.243 C 
ATOM     17  N   PHE A   9      10.786  12.520   9.224  0.00  0.00    -0.297 N 
ATOM     18  H   PHE A   9      10.285  11.927   9.916  0.00  0.00    +0.150 HD
ATOM     19  O   GLY A   8      11.340  14.586   8.565  0.00  0.00    -0.273 OA
BRANCH  17  20
ATOM     20  CA  PHE A   9      11.490  11.897   8.115  0.00  0.00    +0.153 C 
BRANCH  20  21
ATOM     21  C   PHE A   9      10.577  11.361   7.027  0.00  0.00    +0.241 C 
ATOM     22  O   PHE A   9       9.409  11.056   7.258  0.00  0.00    -0.273 OA
ATOM     23  N   ILE A  10      11.126  11.259   5.825  0.00  0.00    -0.298 N 
ATOM     24  H   ILE A  10      12.103  11.586   5.683  0.00  0.00    +0.150 HD
BRANCH  23  25
ATOM     25  CA  ILE A  10      10.396  10.702   4.704  0.00  0.00    +0.137 C 
BRANCH  25  26
ATOM     26  C   ILE A  10      11.387   9.883   3.901  0.00  0.00    +0.227 C 
ATOM     27  O   ILE A  10      12.602  10.077   4.005  0.00  0.00    -0.286 OA
ENDBRANCH  25  26
BRANCH  25  28
ATOM     28  CB  ILE A  10       9.776  11.785   3.793  0.00  0.00    +0.026 C 
ATOM     29  CG2 ILE A  10       8.803  12.650   4.599  0.00  0.00    +0.002 C 
BRANCH  28  30
ATOM     30  CG1 ILE A  10      10.872  12.637   3.158  0.00  0.00    +0.002 C 
ATOM     31  CD1 ILE A  10      10.372  13.509   2.027  0.00  0.00    +0.000 C 
ENDBRANCH  28  30
ENDBRANCH  25  28
ENDBRANCH  23  25
ENDBRANCH  20  21
BRANCH  20  32
ATOM     32  CB  PHE A   9      12.369  10.743   8.611  0.00  0.00    +0.055 C 
BRANCH  32  33
ATOM     33  CG  PHE A   9      13.440  11.163   9.567  0.00  0.00    -0.020 A 
ATOM     34  CD2 PHE A   9      13.134  11.456  10.889  0.00  0.00    -0.004 A 
ATOM     35  CE2 PHE A   9      14.126  11.851  11.782  0.00  0.00    -0.000 A 
ATOM     36  CZ  PHE A   9      15.437  11.955  11.347  0.00  0.00    -0.000 A 
ATOM     37  CE1 PHE A   9      15.757  11.667  10.028  0.00  0.00    -0.000 A 
ATOM     38  CD1 PHE A   9      14.757  11.272   9.145  0.00  0.00    -0.004 A 
ENDBRANCH  32  33
ENDBRANCH  20  32
ENDBRANCH  17  20
ENDBRANCH  15  16
ENDBRANCH  13  15
ENDBRANCH  10  11
ENDBRANCH   8  10
ENDBRANCH   5   6
BRANCH   5  39
ATOM     39  CB  ILE A   6      10.284  21.463   9.985  0.00  0.00    +0.027 C 
ATOM     40  CG2 ILE A   6       9.763  22.055  11.284  0.00  0.00    +0.002 C 
BRANCH  39  41
ATOM     41  CG1 ILE A   6      11.346  22.391   9.391  0.00  0.00    +0.002 C 
ATOM     42  CD1 ILE A   6      12.516  22.682  10.318  0.00  0.00    +0.000 C 
ENDBRANCH  39  41
ENDBRANCH   5  39
ENDBRANCH   3   5
BRANCH   1  43
ATOM     43  CA  GLY A   5      12.696  17.881   7.718  0.00  0.00    +0.176 C 
BRANCH  43  45
ATOM     44  C   GLY A   4      14.395  16.162   7.599  0.00  0.00    +0.243 C 
ATOM     45  N   GLY A   5      13.143  16.509   7.870  0.00  0.00    -0.295 N 
ATOM     46  H   GLY A   5      12.471  15.786   8.197  0.00  0.00    +0.150 HD
ATOM     47  O   GLY A   4      15.239  16.956   7.184  0.00  0.00    -0.273 OA
BRANCH  44  48
ATOM     48  CA  GLY A   4      14.736  14.704   7.825  0.00  0.00    +0.176 C 
BRANCH  48  50
ATOM     49  C   ILE A   3      14.960  13.239   5.917  0.00  0.00    +0.241 C 
ATOM     50  N   GLY A   4      15.507  14.121   6.747  0.00  0.00    -0.295 N 
ATOM     51  H   GLY A   4      16.502  14.396   6.621  0.00  0.00    +0.150 HD
ATOM     52  O   ILE A   3      13.787  12.870   5.997  0.00  0.00    -0.273 OA
BRANCH  49  53
ATOM     53  CA  ILE A   3      15.875  12.684   4.835  0.00  0.00    +0.149 C 
BRANCH  53  56
ATOM     54  C   MET A   2      16.341  10.305   4.743  0.00  0.00    +0.241 C 
ATOM     55  O   MET A   2      17.474  10.467   5.187  0.00  0.00    -0.273 OA
ATOM     56  N   ILE A   3      15.500  11.310   4.526  0.00  0.00    -0.297 N 
ATOM     57  H   ILE A   3      14.559  11.113   4.129  0.00  0.00    +0.150 HD
BRANCH  54  58
ATOM     58  CA  MET A   2      15.851   8.914   4.384  0.00  0.00    +0.149 C 
BRANCH  58  60
ATOM     59  C   LYS A   1      16.446   8.253   2.113  0.00  0.00    +0.238 C 
ATOM     60  N   MET A   2      16.782   8.413   3.385  0.00  0.00    -0.297 N 
ATOM     61  H   MET A   2      17.749   8.171   3.680  0.00  0.00    +0.150 HD
ATOM     62  O   LYS A   1      15.320   8.463   1.677  0.00  0.00    -0.274 OA
BRANCH  59  63
ATOM     63  CA  LYS A   1      17.553   7.752   1.211  0.00  0.00    +0.145 C 
BRANCH  63  64
ATOM     64  N   LYS A   1      17.032   6.772   0.273  0.00  0.00    -0.238 NA
ATOM     65  H   LYS A   1      16.029   6.805   0.002  0.00  0.00    +0.142 HD
ENDBRANCH  63  64
BRANCH  63  66
ATOM     66  CB  LYS A   1      18.202   8.949   0.511  0.00  0.00    +0.026 C 
BRANCH  66  67
ATOM     67  CG  LYS A   1      18.912   9.854   1.522  0.00  0.00    -0.000 C 
BRANCH  67  68
ATOM     68  CD  LYS A   1      19.724  10.965   0.897  0.00  0.00    -0.024 C 
BRANCH  68  69
ATOM     69  CE  LYS A   1      20.596  11.624   1.962  0.00  0.00    -0.086 C 
BRANCH  69  70
ATOM     70  NZ  LYS A   1      21.443  12.724   1.425  0.00  0.00    +0.380 N 
ATOM     71  HZ1 LYS A   1      22.011  13.131   2.196  0.00  0.00    -0.089 HD
ATOM     72  HZ2 LYS A   1      20.834  13.461   1.016  0.00  0.00    -0.089 HD
ATOM     73  HZ3 LYS A   1      22.074  12.346   0.690  0.00  0.00    -0.089 HD
ENDBRANCH  69  70
ENDBRANCH  68  69
ENDBRANCH  67  68
ENDBRANCH  66  67
ENDBRANCH  63  66
ENDBRANCH  59  63
ENDBRANCH  58  60
BRANCH  58  74
ATOM     74  CB  MET A   2      15.875   8.017   5.622  0.00  0.00    +0.041 C 
BRANCH  74  75
ATOM     75  CG  MET A   2      14.835   6.919   5.618  0.00  0.00    +0.060 C 
BRANCH  75  76
ATOM     76  SD  MET A   2      13.251   7.529   6.246  0.00  0.00    -0.139 S 
ATOM     77  CE  MET A   2      13.533   7.369   8.011  0.00  0.00    +0.069 C 
ENDBRANCH  75  76
ENDBRANCH  74  75
ENDBRANCH  58  74
ENDBRANCH  54  58
ENDBRANCH  53  56
BRANCH  53  78
ATOM     78  CB  ILE A   3      15.796  13.593   3.582  0.00  0.00    +0.027 C 
ATOM     79  CG2 ILE A   3      16.806  13.126   2.540  0.00  0.00    +0.002 C 
BRANCH  78  80
ATOM     80  CG1 ILE A   3      14.382  13.572   2.997  0.00  0.00    +0.002 C 
ATOM     81  CD1 ILE A   3      14.198  14.510   1.811  0.00  0.00    +0.000 C 
ENDBRANCH  78  80
ENDBRANCH  53  78
ENDBRANCH  49  53
ENDBRANCH  48  50
ENDBRANCH  44  48
ENDBRANCH  43  45
ENDBRANCH   1  43
TORSDOF 36
REMARK  Name = ../refined-set-2016/2xye/2xye_pocket.pdb
REMARK  233 active torsions:
REMARK  status: ('A' for Active; 'I' for Inactive)
REMARK    1  A    between atoms: _1  and  _3
REMARK    2  A    between atoms: _3  and  _4
REMARK    3  A    between atoms: _3  and  _6
REMARK    4  A    between atoms: _6  and  _7
REMARK    5  A    between atoms: _7  and  _8
REMARK    6  A    between atoms: _8  and  _9
REMARK    7  A    between atoms: _18  and  _20
REMARK    8  A    between atoms: _20  and  _21
REMARK    9  A    between atoms: _20  and  _23
REMARK   10  A    between atoms: _23  and  _24
REMARK   11  A    between atoms: _27  and  _29
REMARK   12  A    between atoms: _29  and  _30
REMARK   13  A    between atoms: _29  and  _32
REMARK   14  A    between atoms: _32  and  _33
REMARK   15  A    between atoms: _36  and  _38
REMARK   16  A    between atoms: _38  and  _39
REMARK   17  A    between atoms: _38  and  _41
REMARK   18  A    between atoms: _41  and  _42
REMARK   19  A    between atoms: _45  and  _47
REMARK   20  A    between atoms: _47  and  _48
REMARK   21  A    between atoms: _47  and  _50
REMARK   22  A    between atoms: _50  and  _51
REMARK   23  A    between atoms: _54  and  _56
REMARK   24  A    between atoms: _56  and  _57
REMARK   25  A    between atoms: _59  and  _61
REMARK   26  A    between atoms: _61  and  _62
REMARK   27  A    between atoms: _65  and  _67
REMARK   28  A    between atoms: _67  and  _68
REMARK   29  A    between atoms: _67  and  _70
REMARK   30  A    between atoms: _70  and  _71
REMARK   31  A    between atoms: _74  and  _76
REMARK   32  A    between atoms: _76  and  _77
REMARK   33  A    between atoms: _76  and  _79
REMARK   34  A    between atoms: _79  and  _80
REMARK   35  A    between atoms: _83  and  _85
REMARK   36  A    between atoms: _85  and  _86
REMARK   37  A    between atoms: _85  and  _88
REMARK   38  A    between atoms: _88  and  _89
REMARK   39  A    between atoms: _92  and  _94
REMARK   40  A    between atoms: _94  and  _95
REMARK   41  A    between atoms: _94  and  _97
REMARK   42  A    between atoms: _100  and  _102
REMARK   43  A    between atoms: _102  and  _103
REMARK   44  A    between atoms: _102  and  _105
REMARK   45  A    between atoms: _105  and  _106
REMARK   46  A    between atoms: _106  and  _107
REMARK   47  A    between atoms: _107  and  _108
REMARK   48  A    between atoms: _108  and  _109
REMARK   49  A    between atoms: _113  and  _115
REMARK   50  A    between atoms: _115  and  _116
REMARK   51  A    between atoms: _115  and  _118
REMARK   52  A    between atoms: _118  and  _119
REMARK   53  A    between atoms: _119  and  _120
REMARK   54  A    between atoms: _122  and  _124
REMARK   55  A    between atoms: _124  and  _125
REMARK   56  A    between atoms: _124  and  _127
REMARK   57  A    between atoms: _127  and  _128
REMARK   58  A    between atoms: _131  and  _133
REMARK   59  A    between atoms: _133  and  _134
REMARK   60  A    between atoms: _136  and  _138
REMARK   61  A    between atoms: _138  and  _139
REMARK   62  A    between atoms: _141  and  _143
REMARK   63  A    between atoms: _143  and  _144
REMARK   64  A    between atoms: _143  and  _146
REMARK   65  A    between atoms: _146  and  _147
REMARK   66  A    between atoms: _150  and  _152
REMARK   67  A    between atoms: _152  and  _153
REMARK   68  A    between atoms: _155  and  _157
REMARK   69  A    between atoms: _157  and  _158
REMARK   70  A    between atoms: _160  and  _162
REMARK   71  A    between atoms: _162  and  _163
REMARK   72  A    between atoms: _162  and  _165
REMARK   73  A    between atoms: _165  and  _166
REMARK   74  A    between atoms: _172  and  _174
REMARK   75  A    between atoms: _174  and  _175
REMARK   76  A    between atoms: _174  and  _177
REMARK   77  A    between atoms: _177  and  _178
REMARK   78  A    between atoms: _181  and  _183
REMARK   79  A    between atoms: _183  and  _184
REMARK   80  A    between atoms: _183  and  _186
REMARK   81  A    between atoms: _189  and  _191
REMARK   82  A    between atoms: _191  and  _192
REMARK   83  A    between atoms: _191  and  _194
REMARK   84  A    between atoms: _194  and  _195
REMARK   85  A    between atoms: _198  and  _200
REMARK   86  A    between atoms: _200  and  _201
REMARK   87  A    between atoms: _200  and  _203
REMARK   88  A    between atoms: _203  and  _204
REMARK   89  A    between atoms: _208  and  _209
REMARK   90  A    between atoms: _214  and  _216
REMARK   91  A    between atoms: _216  and  _217
REMARK   92  A    between atoms: _216  and  _219
REMARK   93  A    between atoms: _219  and  _220
REMARK   94  A    between atoms: _223  and  _225
REMARK   95  A    between atoms: _225  and  _226
REMARK   96  A    between atoms: _225  and  _228
REMARK   97  A    between atoms: _228  and  _229
REMARK   98  A    between atoms: _234  and  _236
REMARK   99  A    between atoms: _236  and  _237
REMARK  100  A    between atoms: _236  and  _239
REMARK  101  A    between atoms: _242  and  _244
REMARK  102  A    between atoms: _244  and  _245
REMARK  103  A    between atoms: _244  and  _247
REMARK  104  A    between atoms: _247  and  _248
REMARK  105  A    between atoms: _251  and  _253
REMARK  106  A    between atoms: _253  and  _254
REMARK  107  A    between atoms: _256  and  _258
REMARK  108  A    between atoms: _258  and  _259
REMARK  109  A    between atoms: _258  and  _261
REMARK  110  A    between atoms: _261  and  _262
REMARK  111  A    between atoms: _262  and  _263
REMARK  112  A    between atoms: _263  and  _264
REMARK  113  A    between atoms: _273  and  _275
REMARK  114  A    between atoms: _275  and  _276
REMARK  115  A    between atoms: _275  and  _278
REMARK  116  A    between atoms: _278  and  _279
REMARK  117  A    between atoms: _284  and  _286
REMARK  118  A    between atoms: _286  and  _287
REMARK  119  A    between atoms: _286  and  _289
REMARK  120  A    between atoms: _289  and  _290
REMARK  121  A    between atoms: _290  and  _291
REMARK  122  A    between atoms: _291  and  _292
REMARK  123  A    between atoms: _302  and  _303
REMARK  124  A    between atoms: _308  and  _310
REMARK  125  A    between atoms: _310  and  _311
REMARK  126  A    between atoms: _310  and  _313
REMARK  127  A    between atoms: _313  and  _314
REMARK  128  A    between atoms: _317  and  _319
REMARK  129  A    between atoms: _319  and  _320
REMARK  130  A    between atoms: _319  and  _322
REMARK  131  A    between atoms: _322  and  _323
REMARK  132  A    between atoms: _326  and  _328
REMARK  133  A    between atoms: _328  and  _329
REMARK  134  A    between atoms: _328  and  _331
REMARK  135  A    between atoms: _331  and  _332
REMARK  136  A    between atoms: _335  and  _337
REMARK  137  A    between atoms: _337  and  _338
REMARK  138  A    between atoms: _337  and  _340
REMARK  139  A    between atoms: _340  and  _341
REMARK  140  A    between atoms: _344  and  _346
REMARK  141  A    between atoms: _346  and  _347
REMARK  142  A    between atoms: _346  and  _349
REMARK  143  A    between atoms: _349  and  _350
REMARK  144  A    between atoms: _353  and  _355
REMARK  145  A    between atoms: _355  and  _356
REMARK  146  A    between atoms: _358  and  _360
REMARK  147  A    between atoms: _360  and  _361
REMARK  148  A    between atoms: _364  and  _366
REMARK  149  A    between atoms: _366  and  _367
REMARK  150  A    between atoms: _366  and  _369
REMARK  151  A    between atoms: _369  and  _370
REMARK  152  A    between atoms: _373  and  _375
REMARK  153  A    between atoms: _375  and  _376
REMARK  154  A    between atoms: _375  and  _378
REMARK  155  A    between atoms: _378  and  _379
REMARK  156  A    between atoms: _382  and  _384
REMARK  157  A    between atoms: _384  and  _385
REMARK  158  A    between atoms: _384  and  _387
REMARK  159  A    between atoms: _387  and  _388
REMARK  160  A    between atoms: _391  and  _393
REMARK  161  A    between atoms: _393  and  _394
REMARK  162  A    between atoms: _393  and  _396
REMARK  163  A    between atoms: _399  and  _401
REMARK  164  A    between atoms: _401  and  _402
REMARK  165  A    between atoms: _401  and  _404
REMARK  166  A    between atoms: _404  and  _405
REMARK  167  A    between atoms: _405  and  _406
REMARK  168  A    between atoms: _406  and  _407
REMARK  169  A    between atoms: _407  and  _408
REMARK  170  A    between atoms: _412  and  _414
REMARK  171  A    between atoms: _414  and  _415
REMARK  172  A    between atoms: _414  and  _417
REMARK  173  A    between atoms: _417  and  _418
REMARK  174  A    between atoms: _418  and  _419
REMARK  175  A    between atoms: _421  and  _423
REMARK  176  A    between atoms: _423  and  _424
REMARK  177  A    between atoms: _423  and  _426
REMARK  178  A    between atoms: _426  and  _427
REMARK  179  A    between atoms: _430  and  _432
REMARK  180  A    between atoms: _432  and  _433
REMARK  181  A    between atoms: _435  and  _437
REMARK  182  A    between atoms: _437  and  _438
REMARK  183  A    between atoms: _440  and  _442
REMARK  184  A    between atoms: _442  and  _443
REMARK  185  A    between atoms: _442  and  _445
REMARK  186  A    between atoms: _445  and  _446
REMARK  187  A    between atoms: _449  and  _451
REMARK  188  A    between atoms: _451  and  _452
REMARK  189  A    between atoms: _454  and  _456
REMARK  190  A    between atoms: _456  and  _457
REMARK  191  A    between atoms: _459  and  _461
REMARK  192  A    between atoms: _461  and  _462
REMARK  193  A    between atoms: _461  and  _464
REMARK  194  A    between atoms: _464  and  _465
REMARK  195  A    between atoms: _471  and  _473
REMARK  196  A    between atoms: _473  and  _474
REMARK  197  A    between atoms: _473  and  _476
REMARK  198  A    between atoms: _476  and  _477
REMARK  199  A    between atoms: _480  and  _482
REMARK  200  A    between atoms: _482  and  _483
REMARK  201  A    between atoms: _482  and  _485
REMARK  202  A    between atoms: _488  and  _490
REMARK  203  A    between atoms: _490  and  _491
REMARK  204  A    between atoms: _490  and  _493
REMARK  205  A    between atoms: _493  and  _494
REMARK  206  A    between atoms: _497  and  _499
REMARK  207  A    between atoms: _499  and  _500
REMARK  208  A    between atoms: _499  and  _502
REMARK  209  A    between atoms: _502  and  _503
REMARK  210  A    between atoms: _507  and  _508
REMARK  211  A    between atoms: _513  and  _515
REMARK  212  A    between atoms: _515  and  _516
REMARK  213  A    between atoms: _515  and  _518
REMARK  214  A    between atoms: _518  and  _519
REMARK  215  A    between atoms: _522  and  _524
REMARK  216  A    between atoms: _524  and  _525
REMARK  217  A    between atoms: _524  and  _527
REMARK  218  A    between atoms: _527  and  _528
REMARK  219  A    between atoms: _533  and  _535
REMARK  220  A    between atoms: _535  and  _536
REMARK  221  A    between atoms: _535  and  _538
REMARK  222  A    between atoms: _541  and  _543
REMARK  223  A    between atoms: _543  and  _544
REMARK  224  A    between atoms: _543  and  _546
REMARK  225  A    between atoms: _546  and  _547
REMARK  226  A    between atoms: _550  and  _552
REMARK  227  A    between atoms: _552  and  _553
REMARK  228  A    between atoms: _555  and  _557
REMARK  229  A    between atoms: _557  and  _558
REMARK  230  A    between atoms: _557  and  _560
REMARK  231  A    between atoms: _560  and  _561
REMARK  232  A    between atoms: _561  and  _562
REMARK  233  A    between atoms: _562  and  _563
REMARK                            x       y       z     vdW  Elec       q    Type
REMARK                         _______ _______ _______ _____ _____    ______ ____
ROOT
ATOM      1  CA  VAL A   1      12.915   9.371  -1.077  0.00  0.00    +0.133 C 
ENDROOT
BRANCH   1   2
ATOM      2  CB  VAL A   1      13.513  10.809  -1.033  0.00  0.00    +0.023 C 
ATOM      3  CG2 VAL A   1      12.665  11.714  -0.150  0.00  0.00    +0.002 C 
ATOM      4  CG1 VAL A   1      14.952  10.757  -0.524  0.00  0.00    +0.002 C 
ENDBRANCH   1   2
BRANCH   1   5
ATOM      5  N   VAL A   1      12.843   8.787   0.248  0.00  0.00    -0.239 NA
ATOM      6  H   VAL A   1      13.700   8.393   0.685  0.00  0.00    +0.142 HD
ENDBRANCH   1   5
BRANCH   1   7
ATOM      7  C   VAL A   1      13.773   8.533  -2.006  0.00  0.00    +0.224 C 
ATOM      8  O   VAL A   1      14.545   7.681  -1.560  0.00  0.00    -0.287 OA
ENDBRANCH   1   7
TORSDOF 3
REMARK  Name = ../refined-set-2016/2xye/2xye_pocket.pdb
REMARK  233 active torsions:
REMARK  status: ('A' for Active; 'I' for Inactive)
REMARK    1  A    between atoms: _1  and  _3
REMARK    2  A    between atoms: _3  and  _4
REMARK    3  A    between atoms: _3  and  _6
REMARK    4  A    between atoms: _6  and  _7
REMARK    5  A    between atoms: _7  and  _8
REMARK    6  A    between atoms: _8  and  _9
REMARK    7  A    between atoms: _18  and  _20
REMARK    8  A    between atoms: _20  and  _21
REMARK    9  A    between atoms: _20  and  _23
REMARK   10  A    between atoms: _23  and  _24
REMARK   11  A    between atoms: _27  and  _29
REMARK   12  A    between atoms: _29  and  _30
REMARK   13  A    between atoms: _29  and  _32
REMARK   14  A    between atoms: _32  and  _33
REMARK   15  A    between atoms: _36  and  _38
REMARK   16  A    between atoms: _38  and  _39
REMARK   17  A    between atoms: _38  and  _41
REMARK   18  A    between atoms: _41  and  _42
REMARK   19  A    between atoms: _45  and  _47
REMARK   20  A    between atoms: _47  and  _48
REMARK   21  A    between atoms: _47  and  _50
REMARK   22  A    between atoms: _50  and  _51
REMARK   23  A    between atoms: _54  and  _56
REMARK   24  A    between atoms: _56  and  _57
REMARK   25  A    between atoms: _59  and  _61
REMARK   26  A    between atoms: _61  and  _62
REMARK   27  A    between atoms: _65  and  _67
REMARK   28  A    between atoms: _67  and  _68
REMARK   29  A    between atoms: _67  and  _70
REMARK   30  A    between atoms: _70  and  _71
REMARK   31  A    between atoms: _74  and  _76
REMARK   32  A    between atoms: _76  and  _77
REMARK   33  A    between atoms: _76  and  _79
REMARK   34  A    between atoms: _79  and  _80
REMARK   35  A    between atoms: _83  and  _85
REMARK   36  A    between atoms: _85  and  _86
REMARK   37  A    between atoms: _85  and  _88
REMARK   38  A    between atoms: _88  and  _89
REMARK   39  A    between atoms: _92  and  _94
REMARK   40  A    between atoms: _94  and  _95
REMARK   41  A    between atoms: _94  and  _97
REMARK   42  A    between atoms: _100  and  _102
REMARK   43  A    between atoms: _102  and  _103
REMARK   44  A    between atoms: _102  and  _105
REMARK   45  A    between atoms: _105  and  _106
REMARK   46  A    between atoms: _106  and  _107
REMARK   47  A    between atoms: _107  and  _108
REMARK   48  A    between atoms: _108  and  _109
REMARK   49  A    between atoms: _113  and  _115
REMARK   50  A    between atoms: _115  and  _116
REMARK   51  A    between atoms: _115  and  _118
REMARK   52  A    between atoms: _118  and  _119
REMARK   53  A    between atoms: _119  and  _120
REMARK   54  A    between atoms: _122  and  _124
REMARK   55  A    between atoms: _124  and  _125
REMARK   56  A    between atoms: _124  and  _127
REMARK   57  A    between atoms: _127  and  _128
REMARK   58  A    between atoms: _131  and  _133
REMARK   59  A    between atoms: _133  and  _134
REMARK   60  A    between atoms: _136  and  _138
REMARK   61  A    between atoms: _138  and  _139
REMARK   62  A    between atoms: _141  and  _143
REMARK   63  A    between atoms: _143  and  _144
REMARK   64  A    between atoms: _143  and  _146
REMARK   65  A    between atoms: _146  and  _147
REMARK   66  A    between atoms: _150  and  _152
REMARK   67  A    between atoms: _152  and  _153
REMARK   68  A    between atoms: _155  and  _157
REMARK   69  A    between atoms: _157  and  _158
REMARK   70  A    between atoms: _160  and  _162
REMARK   71  A    between atoms: _162  and  _163
REMARK   72  A    between atoms: _162  and  _165
REMARK   73  A    between atoms: _165  and  _166
REMARK   74  A    between atoms: _172  and  _174
REMARK   75  A    between atoms: _174  and  _175
REMARK   76  A    between atoms: _174  and  _177
REMARK   77  A    between atoms: _177  and  _178
REMARK   78  A    between atoms: _181  and  _183
REMARK   79  A    between atoms: _183  and  _184
REMARK   80  A    between atoms: _183  and  _186
REMARK   81  A    between atoms: _189  and  _191
REMARK   82  A    between atoms: _191  and  _192
REMARK   83  A    between atoms: _191  and  _194
REMARK   84  A    between atoms: _194  and  _195
REMARK   85  A    between atoms: _198  and  _200
REMARK   86  A    between atoms: _200  and  _201
REMARK   87  A    between atoms: _200  and  _203
REMARK   88  A    between atoms: _203  and  _204
REMARK   89  A    between atoms: _208  and  _209
REMARK   90  A    between atoms: _214  and  _216
REMARK   91  A    between atoms: _216  and  _217
REMARK   92  A    between atoms: _216  and  _219
REMARK   93  A    between atoms: _219  and  _220
REMARK   94  A    between atoms: _223  and  _225
REMARK   95  A    between atoms: _225  and  _226
REMARK   96  A    between atoms: _225  and  _228
REMARK   97  A    between atoms: _228  and  _229
REMARK   98  A    between atoms: _234  and  _236
REMARK   99  A    between atoms: _236  and  _237
REMARK  100  A    between atoms: _236  and  _239
REMARK  101  A    between atoms: _242  and  _244
REMARK  102  A    between atoms: _244  and  _245
REMARK  103  A    between atoms: _244  and  _247
REMARK  104  A    between atoms: _247  and  _248
REMARK  105  A    between atoms: _251  and  _253
REMARK  106  A    between atoms: _253  and  _254
REMARK  107  A    between atoms: _256  and  _258
REMARK  108  A    between atoms: _258  and  _259
REMARK  109  A    between atoms: _258  and  _261
REMARK  110  A    between atoms: _261  and  _262
REMARK  111  A    between atoms: _262  and  _263
REMARK  112  A    between atoms: _263  and  _264
REMARK  113  A    between atoms: _273  and  _275
REMARK  114  A    between atoms: _275  and  _276
REMARK  115  A    between atoms: _275  and  _278
REMARK  116  A    between atoms: _278  and  _279
REMARK  117  A    between atoms: _284  and  _286
REMARK  118  A    between atoms: _286  and  _287
REMARK  119  A    between atoms: _286  and  _289
REMARK  120  A    between atoms: _289  and  _290
REMARK  121  A    between atoms: _290  and  _291
REMARK  122  A    between atoms: _291  and  _292
REMARK  123  A    between atoms: _302  and  _303
REMARK  124  A    between atoms: _308  and  _310
REMARK  125  A    between atoms: _310  and  _311
REMARK  126  A    between atoms: _310  and  _313
REMARK  127  A    between atoms: _313  and  _314
REMARK  128  A    between atoms: _317  and  _319
REMARK  129  A    between atoms: _319  and  _320
REMARK  130  A    between atoms: _319  and  _322
REMARK  131  A    between atoms: _322  and  _323
REMARK  132  A    between atoms: _326  and  _328
REMARK  133  A    between atoms: _328  and  _329
REMARK  134  A    between atoms: _328  and  _331
REMARK  135  A    between atoms: _331  and  _332
REMARK  136  A    between atoms: _335  and  _337
REMARK  137  A    between atoms: _337  and  _338
REMARK  138  A    between atoms: _337  and  _340
REMARK  139  A    between atoms: _340  and  _341
REMARK  140  A    between atoms: _344  and  _346
REMARK  141  A    between atoms: _346  and  _347
REMARK  142  A    between atoms: _346  and  _349
REMARK  143  A    between atoms: _349  and  _350
REMARK  144  A    between atoms: _353  and  _355
REMARK  145  A    between atoms: _355  and  _356
REMARK  146  A    between atoms: _358  and  _360
REMARK  147  A    between atoms: _360  and  _361
REMARK  148  A    between atoms: _364  and  _366
REMARK  149  A    between atoms: _366  and  _367
REMARK  150  A    between atoms: _366  and  _369
REMARK  151  A    between atoms: _369  and  _370
REMARK  152  A    between atoms: _373  and  _375
REMARK  153  A    between atoms: _375  and  _376
REMARK  154  A    between atoms: _375  and  _378
REMARK  155  A    between atoms: _378  and  _379
REMARK  156  A    between atoms: _382  and  _384
REMARK  157  A    between atoms: _384  and  _385
REMARK  158  A    between atoms: _384  and  _387
REMARK  159  A    between atoms: _387  and  _388
REMARK  160  A    between atoms: _391  and  _393
REMARK  161  A    between atoms: _393  and  _394
REMARK  162  A    between atoms: _393  and  _396
REMARK  163  A    between atoms: _399  and  _401
REMARK  164  A    between atoms: _401  and  _402
REMARK  165  A    between atoms: _401  and  _404
REMARK  166  A    between atoms: _404  and  _405
REMARK  167  A    between atoms: _405  and  _406
REMARK  168  A    between atoms: _406  and  _407
REMARK  169  A    between atoms: _407  and  _408
REMARK  170  A    between atoms: _412  and  _414
REMARK  171  A    between atoms: _414  and  _415
REMARK  172  A    between atoms: _414  and  _417
REMARK  173  A    between atoms: _417  and  _418
REMARK  174  A    between atoms: _418  and  _419
REMARK  175  A    between atoms: _421  and  _423
REMARK  176  A    between atoms: _423  and  _424
REMARK  177  A    between atoms: _423  and  _426
REMARK  178  A    between atoms: _426  and  _427
REMARK  179  A    between atoms: _430  and  _432
REMARK  180  A    between atoms: _432  and  _433
REMARK  181  A    between atoms: _435  and  _437
REMARK  182  A    between atoms: _437  and  _438
REMARK  183  A    between atoms: _440  and  _442
REMARK  184  A    between atoms: _442  and  _443
REMARK  185  A    between atoms: _442  and  _445
REMARK  186  A    between atoms: _445  and  _446
REMARK  187  A    between atoms: _449  and  _451
REMARK  188  A    between atoms: _451  and  _452
REMARK  189  A    between atoms: _454  and  _456
REMARK  190  A    between atoms: _456  and  _457
REMARK  191  A    between atoms: _459  and  _461
REMARK  192  A    between atoms: _461  and  _462
REMARK  193  A    between atoms: _461  and  _464
REMARK  194  A    between atoms: _464  and  _465
REMARK  195  A    between atoms: _471  and  _473
REMARK  196  A    between atoms: _473  and  _474
REMARK  197  A    between atoms: _473  and  _476
REMARK  198  A    between atoms: _476  and  _477
REMARK  199  A    between atoms: _480  and  _482
REMARK  200  A    between atoms: _482  and  _483
REMARK  201  A    between atoms: _482  and  _485
REMARK  202  A    between atoms: _488  and  _490
REMARK  203  A    between atoms: _490  and  _491
REMARK  204  A    between atoms: _490  and  _493
REMARK  205  A    between atoms: _493  and  _494
REMARK  206  A    between atoms: _497  and  _499
REMARK  207  A    between atoms: _499  and  _500
REMARK  208  A    between atoms: _499  and  _502
REMARK  209  A    between atoms: _502  and  _503
REMARK  210  A    between atoms: _507  and  _508
REMARK  211  A    between atoms: _513  and  _515
REMARK  212  A    between atoms: _515  and  _516
REMARK  213  A    between atoms: _515  and  _518
REMARK  214  A    between atoms: _518  and  _519
REMARK  215  A    between atoms: _522  and  _524
REMARK  216  A    between atoms: _524  and  _525
REMARK  217  A    between atoms: _524  and  _527
REMARK  218  A    between atoms: _527  and  _528
REMARK  219  A    between atoms: _533  and  _535
REMARK  220  A    between atoms: _535  and  _536
REMARK  221  A    between atoms: _535  and  _538
REMARK  222  A    between atoms: _541  and  _543
REMARK  223  A    between atoms: _543  and  _544
REMARK  224  A    between atoms: _543  and  _546
REMARK  225  A    between atoms: _546  and  _547
REMARK  226  A    between atoms: _550  and  _552
REMARK  227  A    between atoms: _552  and  _553
REMARK  228  A    between atoms: _555  and  _557
REMARK  229  A    between atoms: _557  and  _558
REMARK  230  A    between atoms: _557  and  _560
REMARK  231  A    between atoms: _560  and  _561
REMARK  232  A    between atoms: _561  and  _562
REMARK  233  A    between atoms: _562  and  _563
REMARK                            x       y       z     vdW  Elec       q    Type
REMARK                         _______ _______ _______ _____ _____    ______ ____
ROOT
ATOM      1  CA  LEU A   1      15.833  13.298  -4.544  0.00  0.00    +0.133 C 
ENDROOT
BRANCH   1   2
ATOM      2  N   LEU A   1      16.638  14.225  -5.326  0.00  0.00    -0.239 NA
ATOM      3  H   LEU A   1      16.688  15.222  -5.033  0.00  0.00    +0.142 HD
ENDBRANCH   1   2
BRANCH   1   4
ATOM      4  C   LEU A   1      14.380  13.508  -4.962  0.00  0.00    +0.224 C 
ATOM      5  O   LEU A   1      13.942  14.643  -5.149  0.00  0.00    -0.287 OA
ENDBRANCH   1   4
BRANCH   1   6
ATOM      6  CB  LEU A   1      15.995  13.596  -3.051  0.00  0.00    +0.025 C 
BRANCH   6   7
ATOM      7  CG  LEU A   1      17.439  13.737  -2.552  0.00  0.00    +0.002 C 
ATOM      8  CD2 LEU A   1      17.432  14.025  -1.056  0.00  0.00    +0.000 C 
ATOM      9  CD1 LEU A   1      18.226  12.454  -2.849  0.00  0.00    +0.000 C 
ENDBRANCH   6   7
ENDBRANCH   1   6
TORSDOF 4
REMARK  Name = ../refined-set-2016/2xye/2xye_pocket.pdb
REMARK  233 active torsions:
REMARK  status: ('A' for Active; 'I' for Inactive)
REMARK    1  A    between atoms: _1  and  _3
REMARK    2  A    between atoms: _3  and  _4
REMARK    3  A    between atoms: _3  and  _6
REMARK    4  A    between atoms: _6  and  _7
REMARK    5  A    between atoms: _7  and  _8
REMARK    6  A    between atoms: _8  and  _9
REMARK    7  A    between atoms: _18  and  _20
REMARK    8  A    between atoms: _20  and  _21
REMARK    9  A    between atoms: _20  and  _23
REMARK   10  A    between atoms: _23  and  _24
REMARK   11  A    between atoms: _27  and  _29
REMARK   12  A    between atoms: _29  and  _30
REMARK   13  A    between atoms: _29  and  _32
REMARK   14  A    between atoms: _32  and  _33
REMARK   15  A    between atoms: _36  and  _38
REMARK   16  A    between atoms: _38  and  _39
REMARK   17  A    between atoms: _38  and  _41
REMARK   18  A    between atoms: _41  and  _42
REMARK   19  A    between atoms: _45  and  _47
REMARK   20  A    between atoms: _47  and  _48
REMARK   21  A    between atoms: _47  and  _50
REMARK   22  A    between atoms: _50  and  _51
REMARK   23  A    between atoms: _54  and  _56
REMARK   24  A    between atoms: _56  and  _57
REMARK   25  A    between atoms: _59  and  _61
REMARK   26  A    between atoms: _61  and  _62
REMARK   27  A    between atoms: _65  and  _67
REMARK   28  A    between atoms: _67  and  _68
REMARK   29  A    between atoms: _67  and  _70
REMARK   30  A    between atoms: _70  and  _71
REMARK   31  A    between atoms: _74  and  _76
REMARK   32  A    between atoms: _76  and  _77
REMARK   33  A    between atoms: _76  and  _79
REMARK   34  A    between atoms: _79  and  _80
REMARK   35  A    between atoms: _83  and  _85
REMARK   36  A    between atoms: _85  and  _86
REMARK   37  A    between atoms: _85  and  _88
REMARK   38  A    between atoms: _88  and  _89
REMARK   39  A    between atoms: _92  and  _94
REMARK   40  A    between atoms: _94  and  _95
REMARK   41  A    between atoms: _94  and  _97
REMARK   42  A    between atoms: _100  and  _102
REMARK   43  A    between atoms: _102  and  _103
REMARK   44  A    between atoms: _102  and  _105
REMARK   45  A    between atoms: _105  and  _106
REMARK   46  A    between atoms: _106  and  _107
REMARK   47  A    between atoms: _107  and  _108
REMARK   48  A    between atoms: _108  and  _109
REMARK   49  A    between atoms: _113  and  _115
REMARK   50  A    between atoms: _115  and  _116
REMARK   51  A    between atoms: _115  and  _118
REMARK   52  A    between atoms: _118  and  _119
REMARK   53  A    between atoms: _119  and  _120
REMARK   54  A    between atoms: _122  and  _124
REMARK   55  A    between atoms: _124  and  _125
REMARK   56  A    between atoms: _124  and  _127
REMARK   57  A    between atoms: _127  and  _128
REMARK   58  A    between atoms: _131  and  _133
REMARK   59  A    between atoms: _133  and  _134
REMARK   60  A    between atoms: _136  and  _138
REMARK   61  A    between atoms: _138  and  _139
REMARK   62  A    between atoms: _141  and  _143
REMARK   63  A    between atoms: _143  and  _144
REMARK   64  A    between atoms: _143  and  _146
REMARK   65  A    between atoms: _146  and  _147
REMARK   66  A    between atoms: _150  and  _152
REMARK   67  A    between atoms: _152  and  _153
REMARK   68  A    between atoms: _155  and  _157
REMARK   69  A    between atoms: _157  and  _158
REMARK   70  A    between atoms: _160  and  _162
REMARK   71  A    between atoms: _162  and  _163
REMARK   72  A    between atoms: _162  and  _165
REMARK   73  A    between atoms: _165  and  _166
REMARK   74  A    between atoms: _172  and  _174
REMARK   75  A    between atoms: _174  and  _175
REMARK   76  A    between atoms: _174  and  _177
REMARK   77  A    between atoms: _177  and  _178
REMARK   78  A    between atoms: _181  and  _183
REMARK   79  A    between atoms: _183  and  _184
REMARK   80  A    between atoms: _183  and  _186
REMARK   81  A    between atoms: _189  and  _191
REMARK   82  A    between atoms: _191  and  _192
REMARK   83  A    between atoms: _191  and  _194
REMARK   84  A    between atoms: _194  and  _195
REMARK   85  A    between atoms: _198  and  _200
REMARK   86  A    between atoms: _200  and  _201
REMARK   87  A    between atoms: _200  and  _203
REMARK   88  A    between atoms: _203  and  _204
REMARK   89  A    between atoms: _208  and  _209
REMARK   90  A    between atoms: _214  and  _216
REMARK   91  A    between atoms: _216  and  _217
REMARK   92  A    between atoms: _216  and  _219
REMARK   93  A    between atoms: _219  and  _220
REMARK   94  A    between atoms: _223  and  _225
REMARK   95  A    between atoms: _225  and  _226
REMARK   96  A    between atoms: _225  and  _228
REMARK   97  A    between atoms: _228  and  _229
REMARK   98  A    between atoms: _234  and  _236
REMARK   99  A    between atoms: _236  and  _237
REMARK  100  A    between atoms: _236  and  _239
REMARK  101  A    between atoms: _242  and  _244
REMARK  102  A    between atoms: _244  and  _245
REMARK  103  A    between atoms: _244  and  _247
REMARK  104  A    between atoms: _247  and  _248
REMARK  105  A    between atoms: _251  and  _253
REMARK  106  A    between atoms: _253  and  _254
REMARK  107  A    between atoms: _256  and  _258
REMARK  108  A    between atoms: _258  and  _259
REMARK  109  A    between atoms: _258  and  _261
REMARK  110  A    between atoms: _261  and  _262
REMARK  111  A    between atoms: _262  and  _263
REMARK  112  A    between atoms: _263  and  _264
REMARK  113  A    between atoms: _273  and  _275
REMARK  114  A    between atoms: _275  and  _276
REMARK  115  A    between atoms: _275  and  _278
REMARK  116  A    between atoms: _278  and  _279
REMARK  117  A    between atoms: _284  and  _286
REMARK  118  A    between atoms: _286  and  _287
REMARK  119  A    between atoms: _286  and  _289
REMARK  120  A    between atoms: _289  and  _290
REMARK  121  A    between atoms: _290  and  _291
REMARK  122  A    between atoms: _291  and  _292
REMARK  123  A    between atoms: _302  and  _303
REMARK  124  A    between atoms: _308  and  _310
REMARK  125  A    between atoms: _310  and  _311
REMARK  126  A    between atoms: _310  and  _313
REMARK  127  A    between atoms: _313  and  _314
REMARK  128  A    between atoms: _317  and  _319
REMARK  129  A    between atoms: _319  and  _320
REMARK  130  A    between atoms: _319  and  _322
REMARK  131  A    between atoms: _322  and  _323
REMARK  132  A    between atoms: _326  and  _328
REMARK  133  A    between atoms: _328  and  _329
REMARK  134  A    between atoms: _328  and  _331
REMARK  135  A    between atoms: _331  and  _332
REMARK  136  A    between atoms: _335  and  _337
REMARK  137  A    between atoms: _337  and  _338
REMARK  138  A    between atoms: _337  and  _340
REMARK  139  A    between atoms: _340  and  _341
REMARK  140  A    between atoms: _344  and  _346
REMARK  141  A    between atoms: _346  and  _347
REMARK  142  A    between atoms: _346  and  _349
REMARK  143  A    between atoms: _349  and  _350
REMARK  144  A    between atoms: _353  and  _355
REMARK  145  A    between atoms: _355  and  _356
REMARK  146  A    between atoms: _358  and  _360
REMARK  147  A    between atoms: _360  and  _361
REMARK  148  A    between atoms: _364  and  _366
REMARK  149  A    between atoms: _366  and  _367
REMARK  150  A    between atoms: _366  and  _369
REMARK  151  A    between atoms: _369  and  _370
REMARK  152  A    between atoms: _373  and  _375
REMARK  153  A    between atoms: _375  and  _376
REMARK  154  A    between atoms: _375  and  _378
REMARK  155  A    between atoms: _378  and  _379
REMARK  156  A    between atoms: _382  and  _384
REMARK  157  A    between atoms: _384  and  _385
REMARK  158  A    between atoms: _384  and  _387
REMARK  159  A    between atoms: _387  and  _388
REMARK  160  A    between atoms: _391  and  _393
REMARK  161  A    between atoms: _393  and  _394
REMARK  162  A    between atoms: _393  and  _396
REMARK  163  A    between atoms: _399  and  _401
REMARK  164  A    between atoms: _401  and  _402
REMARK  165  A    between atoms: _401  and  _404
REMARK  166  A    between atoms: _404  and  _405
REMARK  167  A    between atoms: _405  and  _406
REMARK  168  A    between atoms: _406  and  _407
REMARK  169  A    between atoms: _407  and  _408
REMARK  170  A    between atoms: _412  and  _414
REMARK  171  A    between atoms: _414  and  _415
REMARK  172  A    between atoms: _414  and  _417
REMARK  173  A    between atoms: _417  and  _418
REMARK  174  A    between atoms: _418  and  _419
REMARK  175  A    between atoms: _421  and  _423
REMARK  176  A    between atoms: _423  and  _424
REMARK  177  A    between atoms: _423  and  _426
REMARK  178  A    between atoms: _426  and  _427
REMARK  179  A    between atoms: _430  and  _432
REMARK  180  A    between atoms: _432  and  _433
REMARK  181  A    between atoms: _435  and  _437
REMARK  182  A    between atoms: _437  and  _438
REMARK  183  A    between atoms: _440  and  _442
REMARK  184  A    between atoms: _442  and  _443
REMARK  185  A    between atoms: _442  and  _445
REMARK  186  A    between atoms: _445  and  _446
REMARK  187  A    between atoms: _449  and  _451
REMARK  188  A    between atoms: _451  and  _452
REMARK  189  A    between atoms: _454  and  _456
REMARK  190  A    between atoms: _456  and  _457
REMARK  191  A    between atoms: _459  and  _461
REMARK  192  A    between atoms: _461  and  _462
REMARK  193  A    between atoms: _461  and  _464
REMARK  194  A    between atoms: _464  and  _465
REMARK  195  A    between atoms: _471  and  _473
REMARK  196  A    between atoms: _473  and  _474
REMARK  197  A    between atoms: _473  and  _476
REMARK  198  A    between atoms: _476  and  _477
REMARK  199  A    between atoms: _480  and  _482
REMARK  200  A    between atoms: _482  and  _483
REMARK  201  A    between atoms: _482  and  _485
REMARK  202  A    between atoms: _488  and  _490
REMARK  203  A    between atoms: _490  and  _491
REMARK  204  A    between atoms: _490  and  _493
REMARK  205  A    between atoms: _493  and  _494
REMARK  206  A    between atoms: _497  and  _499
REMARK  207  A    between atoms: _499  and  _500
REMARK  208  A    between atoms: _499  and  _502
REMARK  209  A    between atoms: _502  and  _503
REMARK  210  A    between atoms: _507  and  _508
REMARK  211  A    between atoms: _513  and  _515
REMARK  212  A    between atoms: _515  and  _516
REMARK  213  A    between atoms: _515  and  _518
REMARK  214  A    between atoms: _518  and  _519
REMARK  215  A    between atoms: _522  and  _524
REMARK  216  A    between atoms: _524  and  _525
REMARK  217  A    between atoms: _524  and  _527
REMARK  218  A    between atoms: _527  and  _528
REMARK  219  A    between atoms: _533  and  _535
REMARK  220  A    between atoms: _535  and  _536
REMARK  221  A    between atoms: _535  and  _538
REMARK  222  A    between atoms: _541  and  _543
REMARK  223  A    between atoms: _543  and  _544
REMARK  224  A    between atoms: _543  and  _546
REMARK  225  A    between atoms: _546  and  _547
REMARK  226  A    between atoms: _550  and  _552
REMARK  227  A    between atoms: _552  and  _553
REMARK  228  A    between atoms: _555  and  _557
REMARK  229  A    between atoms: _557  and  _558
REMARK  230  A    between atoms: _557  and  _560
REMARK  231  A    between atoms: _560  and  _561
REMARK  232  A    between atoms: _561  and  _562
REMARK  233  A    between atoms: _562  and  _563
REMARK                            x       y       z     vdW  Elec       q    Type
REMARK                         _______ _______ _______ _____ _____    ______ ____
ROOT
ATOM      1  C   ASN A   4      11.200  22.395  -4.333  0.00  0.00    +0.241 C 
ATOM      2  N   VAL A   5      12.271  21.806  -3.806  0.00  0.00    -0.297 N 
ATOM      3  H   VAL A   5      12.373  20.773  -3.865  0.00  0.00    +0.150 HD
ATOM      4  O   ASN A   4      11.018  23.612  -4.290  0.00  0.00    -0.273 OA
ENDROOT
BRANCH   2   5
ATOM      5  CA  VAL A   5      13.299  22.597  -3.148  0.00  0.00    +0.149 C 
BRANCH   5   6
ATOM      6  C   VAL A   5      14.688  22.338  -3.726  0.00  0.00    +0.241 C 
ATOM      7  O   VAL A   5      15.091  21.192  -3.949  0.00  0.00    -0.273 OA
ATOM      8  N   ILE A   6      15.411  23.418  -3.980  0.00  0.00    -0.297 N 
ATOM      9  H   ILE A   6      15.005  24.357  -3.794  0.00  0.00    +0.150 HD
BRANCH   8  10
ATOM     10  CA  ILE A   6      16.757  23.319  -4.512  0.00  0.00    +0.149 C 
BRANCH  10  11
ATOM     11  C   ILE A   6      17.692  23.518  -3.317  0.00  0.00    +0.241 C 
ATOM     12  O   ILE A   6      17.709  24.584  -2.696  0.00  0.00    -0.273 OA
ATOM     13  N   GLY A   7      18.448  22.477  -2.992  0.00  0.00    -0.295 N 
ATOM     14  H   GLY A   7      18.388  21.604  -3.553  0.00  0.00    +0.150 HD
BRANCH  13  15
ATOM     15  CA  GLY A   7      19.358  22.542  -1.862  0.00  0.00    +0.176 C 
BRANCH  15  16
ATOM     16  C   GLY A   7      20.772  22.983  -2.200  0.00  0.00    +0.243 C 
ATOM     17  N   ARG A   8      21.605  23.073  -1.168  0.00  0.00    -0.298 N 
ATOM     18  H   ARG A   8      21.256  22.829  -0.219  0.00  0.00    +0.150 HD
ATOM     19  O   GLY A   7      21.105  23.216  -3.361  0.00  0.00    -0.273 OA
BRANCH  17  20
ATOM     20  CA  ARG A   8      22.987  23.500  -1.317  0.00  0.00    +0.137 C 
BRANCH  20  21
ATOM     21  C   ARG A   8      23.816  22.691  -2.318  0.00  0.00    +0.227 C 
ATOM     22  O   ARG A   8      24.720  23.238  -2.952  0.00  0.00    -0.286 OA
ENDBRANCH  20  21
BRANCH  20  23
ATOM     23  CB  ARG A   8      23.679  23.503   0.055  0.00  0.00    +0.031 C 
BRANCH  23  24
ATOM     24  CG  ARG A   8      23.124  24.561   1.013  0.00  0.00    +0.045 C 
BRANCH  24  25
ATOM     25  CD  ARG A   8      23.958  24.695   2.294  0.00  0.00    +0.174 C 
BRANCH  25  26
ATOM     26  NE  ARG A   8      24.017  23.454   3.060  0.00  0.00    -0.265 N 
ATOM     27  HE  ARG A   8      23.218  23.237   3.690  0.00  0.00    +0.259 HD
ATOM     28  CZ  ARG A   8      25.018  22.582   3.010  0.00  0.00    +0.342 C 
ATOM     29  NH2 ARG A   8      24.960  21.468   3.733  0.00  0.00    -0.292 N 
ATOM     30 HH21 ARG A   8      24.133  21.281   4.335  0.00  0.00    +0.255 HD
ATOM     31 HH22 ARG A   8      25.742  20.783   3.696  0.00  0.00    +0.255 HD
ATOM     32  NH1 ARG A   8      26.068  22.811   2.229  0.00  0.00    -0.292 N 
ATOM     33 HH11 ARG A   8      26.849  22.125   2.193  0.00  0.00    +0.255 HD
ATOM     34 HH12 ARG A   8      26.109  23.676   1.653  0.00  0.00    +0.255 HD
ENDBRANCH  25  26
ENDBRANCH  24  25
ENDBRANCH  23  24
ENDBRANCH  20  23
ENDBRANCH  17  20
ENDBRANCH  15  16
ENDBRANCH  13  15
ENDBRANCH  10  11
BRANCH  10  35
ATOM     35  CB  ILE A   6      17.010  24.407  -5.580  0.00  0.00    +0.027 C 
ATOM     36  CG2 ILE A   6      18.410  24.265  -6.153  0.00  0.00    +0.002 C 
BRANCH  35  37
ATOM     37  CG1 ILE A   6      15.941  24.320  -6.680  0.00  0.00    +0.002 C 
ATOM     38  CD1 ILE A   6      15.825  22.956  -7.350  0.00  0.00    +0.000 C 
ENDBRANCH  35  37
ENDBRANCH  10  35
ENDBRANCH   8  10
ENDBRANCH   5   6
BRANCH   5  39
ATOM     39  CB  VAL A   5      13.339  22.332  -1.621  0.00  0.00    +0.027 C 
ATOM     40  CG2 VAL A   5      11.948  22.491  -1.023  0.00  0.00    +0.002 C 
ATOM     41  CG1 VAL A   5      13.877  20.953  -1.343  0.00  0.00    +0.002 C 
ENDBRANCH   5  39
ENDBRANCH   2   5
BRANCH   1  42
ATOM     42  CA  ASN A   4      10.176  21.492  -5.001  0.00  0.00    +0.158 C 
BRANCH  42  45
ATOM     43  C   THR A   3       8.655  21.435  -3.111  0.00  0.00    +0.243 C 
ATOM     44  O   THR A   3       9.479  20.838  -2.418  0.00  0.00    -0.273 OA
ATOM     45  N   ASN A   4       8.885  21.770  -4.379  0.00  0.00    -0.297 N 
ATOM     46  H   ASN A   4       8.137  22.235  -4.932  0.00  0.00    +0.150 HD
BRANCH  43  47
ATOM     47  CA  THR A   3       7.288  21.803  -2.534  0.00  0.00    +0.176 C 
BRANCH  47  49
ATOM     48  C   PRO A   2       5.684  20.868  -0.988  0.00  0.00    +0.241 C 
ATOM     49  N   THR A   3       6.935  20.922  -1.429  0.00  0.00    -0.295 N 
ATOM     50  H   THR A   3       7.667  20.332  -0.983  0.00  0.00    +0.150 HD
ATOM     51  O   PRO A   2       4.782  21.538  -1.490  0.00  0.00    -0.273 OA
BRANCH  48  57
ATOM     52  C   THR A   1       6.684  18.018  -0.657  0.00  0.00    +0.244 C 
ATOM     53  N   PRO A   2       6.441  18.893   0.331  0.00  0.00    -0.272 N 
ATOM     54  CD  PRO A   2       7.011  18.932   1.687  0.00  0.00    +0.094 C 
ATOM     55  CG  PRO A   2       6.748  20.351   2.089  0.00  0.00    +0.024 C 
ATOM     56  CB  PRO A   2       5.374  20.602   1.537  0.00  0.00    +0.031 C 
ATOM     57  CA  PRO A   2       5.400  19.910   0.170  0.00  0.00    +0.152 C 
ATOM     58  O   THR A   1       6.051  18.034  -1.711  0.00  0.00    -0.273 OA
BRANCH  52  59
ATOM     59  CA  THR A   1       7.780  16.993  -0.423  0.00  0.00    +0.172 C 
BRANCH  59  60
ATOM     60  N   THR A   1       7.393  15.712  -0.985  0.00  0.00    -0.236 NA
ATOM     61  H   THR A   1       7.458  15.567  -2.013  0.00  0.00    +0.142 HD
ENDBRANCH  59  60
BRANCH  59  62
ATOM     62  CB  THR A   1       9.074  17.523  -1.064  0.00  0.00    +0.135 C 
ATOM     63  CG2 THR A   1       8.947  17.555  -2.581  0.00  0.00    +0.034 C 
BRANCH  62  64
ATOM     64  OG1 THR A   1       9.331  18.849  -0.585  0.00  0.00    -0.383 OA
ATOM     65  HG1 THR A   1      10.164  19.192  -0.997  0.00  0.00    +0.210 HD
ENDBRANCH  62  64
ENDBRANCH  59  62
ENDBRANCH  52  59
ENDBRANCH  48  57
ENDBRANCH  47  49
BRANCH  47  66
ATOM     66  CB  THR A   3       7.307  23.280  -2.067  0.00  0.00    +0.137 C 
ATOM     67  CG2 THR A   3       8.538  23.557  -1.209  0.00  0.00    +0.034 C 
BRANCH  66  68
ATOM     68  OG1 THR A   3       7.336  24.145  -3.206  0.00  0.00    -0.382 OA
ATOM     69  HG1 THR A   3       6.531  23.986  -3.760  0.00  0.00    +0.210 HD
ENDBRANCH  66  68
ENDBRANCH  47  66
ENDBRANCH  43  47
ENDBRANCH  42  45
BRANCH  42  70
ATOM     70  CB  ASN A   4      10.158  21.802  -6.498  0.00  0.00    +0.114 C 
BRANCH  70  71
ATOM     71  CG  ASN A   4       9.308  20.828  -7.290  0.00  0.00    +0.222 C 
ATOM     72  OD1 ASN A   4       9.311  19.629  -7.026  0.00  0.00    -0.275 OA
ATOM     73  ND2 ASN A   4       8.596  21.339  -8.285  0.00  0.00    -0.329 N 
ATOM     74 HD21 ASN A   4       8.624  22.362  -8.473  0.00  0.00    +0.145 HD
ATOM     75 HD22 ASN A   4       8.010  20.717  -8.878  0.00  0.00    +0.145 HD
ENDBRANCH  70  71
ENDBRANCH  42  70
ENDBRANCH   1  42
TORSDOF 28
REMARK  Name = ../refined-set-2016/2xye/2xye_pocket.pdb
REMARK  233 active torsions:
REMARK  status: ('A' for Active; 'I' for Inactive)
REMARK    1  A    between atoms: _1  and  _3
REMARK    2  A    between atoms: _3  and  _4
REMARK    3  A    between atoms: _3  and  _6
REMARK    4  A    between atoms: _6  and  _7
REMARK    5  A    between atoms: _7  and  _8
REMARK    6  A    between atoms: _8  and  _9
REMARK    7  A    between atoms: _18  and  _20
REMARK    8  A    between atoms: _20  and  _21
REMARK    9  A    between atoms: _20  and  _23
REMARK   10  A    between atoms: _23  and  _24
REMARK   11  A    between atoms: _27  and  _29
REMARK   12  A    between atoms: _29  and  _30
REMARK   13  A    between atoms: _29  and  _32
REMARK   14  A    between atoms: _32  and  _33
REMARK   15  A    between atoms: _36  and  _38
REMARK   16  A    between atoms: _38  and  _39
REMARK   17  A    between atoms: _38  and  _41
REMARK   18  A    between atoms: _41  and  _42
REMARK   19  A    between atoms: _45  and  _47
REMARK   20  A    between atoms: _47  and  _48
REMARK   21  A    between atoms: _47  and  _50
REMARK   22  A    between atoms: _50  and  _51
REMARK   23  A    between atoms: _54  and  _56
REMARK   24  A    between atoms: _56  and  _57
REMARK   25  A    between atoms: _59  and  _61
REMARK   26  A    between atoms: _61  and  _62
REMARK   27  A    between atoms: _65  and  _67
REMARK   28  A    between atoms: _67  and  _68
REMARK   29  A    between atoms: _67  and  _70
REMARK   30  A    between atoms: _70  and  _71
REMARK   31  A    between atoms: _74  and  _76
REMARK   32  A    between atoms: _76  and  _77
REMARK   33  A    between atoms: _76  and  _79
REMARK   34  A    between atoms: _79  and  _80
REMARK   35  A    between atoms: _83  and  _85
REMARK   36  A    between atoms: _85  and  _86
REMARK   37  A    between atoms: _85  and  _88
REMARK   38  A    between atoms: _88  and  _89
REMARK   39  A    between atoms: _92  and  _94
REMARK   40  A    between atoms: _94  and  _95
REMARK   41  A    between atoms: _94  and  _97
REMARK   42  A    between atoms: _100  and  _102
REMARK   43  A    between atoms: _102  and  _103
REMARK   44  A    between atoms: _102  and  _105
REMARK   45  A    between atoms: _105  and  _106
REMARK   46  A    between atoms: _106  and  _107
REMARK   47  A    between atoms: _107  and  _108
REMARK   48  A    between atoms: _108  and  _109
REMARK   49  A    between atoms: _113  and  _115
REMARK   50  A    between atoms: _115  and  _116
REMARK   51  A    between atoms: _115  and  _118
REMARK   52  A    between atoms: _118  and  _119
REMARK   53  A    between atoms: _119  and  _120
REMARK   54  A    between atoms: _122  and  _124
REMARK   55  A    between atoms: _124  and  _125
REMARK   56  A    between atoms: _124  and  _127
REMARK   57  A    between atoms: _127  and  _128
REMARK   58  A    between atoms: _131  and  _133
REMARK   59  A    between atoms: _133  and  _134
REMARK   60  A    between atoms: _136  and  _138
REMARK   61  A    between atoms: _138  and  _139
REMARK   62  A    between atoms: _141  and  _143
REMARK   63  A    between atoms: _143  and  _144
REMARK   64  A    between atoms: _143  and  _146
REMARK   65  A    between atoms: _146  and  _147
REMARK   66  A    between atoms: _150  and  _152
REMARK   67  A    between atoms: _152  and  _153
REMARK   68  A    between atoms: _155  and  _157
REMARK   69  A    between atoms: _157  and  _158
REMARK   70  A    between atoms: _160  and  _162
REMARK   71  A    between atoms: _162  and  _163
REMARK   72  A    between atoms: _162  and  _165
REMARK   73  A    between atoms: _165  and  _166
REMARK   74  A    between atoms: _172  and  _174
REMARK   75  A    between atoms: _174  and  _175
REMARK   76  A    between atoms: _174  and  _177
REMARK   77  A    between atoms: _177  and  _178
REMARK   78  A    between atoms: _181  and  _183
REMARK   79  A    between atoms: _183  and  _184
REMARK   80  A    between atoms: _183  and  _186
REMARK   81  A    between atoms: _189  and  _191
REMARK   82  A    between atoms: _191  and  _192
REMARK   83  A    between atoms: _191  and  _194
REMARK   84  A    between atoms: _194  and  _195
REMARK   85  A    between atoms: _198  and  _200
REMARK   86  A    between atoms: _200  and  _201
REMARK   87  A    between atoms: _200  and  _203
REMARK   88  A    between atoms: _203  and  _204
REMARK   89  A    between atoms: _208  and  _209
REMARK   90  A    between atoms: _214  and  _216
REMARK   91  A    between atoms: _216  and  _217
REMARK   92  A    between atoms: _216  and  _219
REMARK   93  A    between atoms: _219  and  _220
REMARK   94  A    between atoms: _223  and  _225
REMARK   95  A    between atoms: _225  and  _226
REMARK   96  A    between atoms: _225  and  _228
REMARK   97  A    between atoms: _228  and  _229
REMARK   98  A    between atoms: _234  and  _236
REMARK   99  A    between atoms: _236  and  _237
REMARK  100  A    between atoms: _236  and  _239
REMARK  101  A    between atoms: _242  and  _244
REMARK  102  A    between atoms: _244  and  _245
REMARK  103  A    between atoms: _244  and  _247
REMARK  104  A    between atoms: _247  and  _248
REMARK  105  A    between atoms: _251  and  _253
REMARK  106  A    between atoms: _253  and  _254
REMARK  107  A    between atoms: _256  and  _258
REMARK  108  A    between atoms: _258  and  _259
REMARK  109  A    between atoms: _258  and  _261
REMARK  110  A    between atoms: _261  and  _262
REMARK  111  A    between atoms: _262  and  _263
REMARK  112  A    between atoms: _263  and  _264
REMARK  113  A    between atoms: _273  and  _275
REMARK  114  A    between atoms: _275  and  _276
REMARK  115  A    between atoms: _275  and  _278
REMARK  116  A    between atoms: _278  and  _279
REMARK  117  A    between atoms: _284  and  _286
REMARK  118  A    between atoms: _286  and  _287
REMARK  119  A    between atoms: _286  and  _289
REMARK  120  A    between atoms: _289  and  _290
REMARK  121  A    between atoms: _290  and  _291
REMARK  122  A    between atoms: _291  and  _292
REMARK  123  A    between atoms: _302  and  _303
REMARK  124  A    between atoms: _308  and  _310
REMARK  125  A    between atoms: _310  and  _311
REMARK  126  A    between atoms: _310  and  _313
REMARK  127  A    between atoms: _313  and  _314
REMARK  128  A    between atoms: _317  and  _319
REMARK  129  A    between atoms: _319  and  _320
REMARK  130  A    between atoms: _319  and  _322
REMARK  131  A    between atoms: _322  and  _323
REMARK  132  A    between atoms: _326  and  _328
REMARK  133  A    between atoms: _328  and  _329
REMARK  134  A    between atoms: _328  and  _331
REMARK  135  A    between atoms: _331  and  _332
REMARK  136  A    between atoms: _335  and  _337
REMARK  137  A    between atoms: _337  and  _338
REMARK  138  A    between atoms: _337  and  _340
REMARK  139  A    between atoms: _340  and  _341
REMARK  140  A    between atoms: _344  and  _346
REMARK  141  A    between atoms: _346  and  _347
REMARK  142  A    between atoms: _346  and  _349
REMARK  143  A    between atoms: _349  and  _350
REMARK  144  A    between atoms: _353  and  _355
REMARK  145  A    between atoms: _355  and  _356
REMARK  146  A    between atoms: _358  and  _360
REMARK  147  A    between atoms: _360  and  _361
REMARK  148  A    between atoms: _364  and  _366
REMARK  149  A    between atoms: _366  and  _367
REMARK  150  A    between atoms: _366  and  _369
REMARK  151  A    between atoms: _369  and  _370
REMARK  152  A    between atoms: _373  and  _375
REMARK  153  A    between atoms: _375  and  _376
REMARK  154  A    between atoms: _375  and  _378
REMARK  155  A    between atoms: _378  and  _379
REMARK  156  A    between atoms: _382  and  _384
REMARK  157  A    between atoms: _384  and  _385
REMARK  158  A    between atoms: _384  and  _387
REMARK  159  A    between atoms: _387  and  _388
REMARK  160  A    between atoms: _391  and  _393
REMARK  161  A    between atoms: _393  and  _394
REMARK  162  A    between atoms: _393  and  _396
REMARK  163  A    between atoms: _399  and  _401
REMARK  164  A    between atoms: _401  and  _402
REMARK  165  A    between atoms: _401  and  _404
REMARK  166  A    between atoms: _404  and  _405
REMARK  167  A    between atoms: _405  and  _406
REMARK  168  A    between atoms: _406  and  _407
REMARK  169  A    between atoms: _407  and  _408
REMARK  170  A    between atoms: _412  and  _414
REMARK  171  A    between atoms: _414  and  _415
REMARK  172  A    between atoms: _414  and  _417
REMARK  173  A    between atoms: _417  and  _418
REMARK  174  A    between atoms: _418  and  _419
REMARK  175  A    between atoms: _421  and  _423
REMARK  176  A    between atoms: _423  and  _424
REMARK  177  A    between atoms: _423  and  _426
REMARK  178  A    between atoms: _426  and  _427
REMARK  179  A    between atoms: _430  and  _432
REMARK  180  A    between atoms: _432  and  _433
REMARK  181  A    between atoms: _435  and  _437
REMARK  182  A    between atoms: _437  and  _438
REMARK  183  A    between atoms: _440  and  _442
REMARK  184  A    between atoms: _442  and  _443
REMARK  185  A    between atoms: _442  and  _445
REMARK  186  A    between atoms: _445  and  _446
REMARK  187  A    between atoms: _449  and  _451
REMARK  188  A    between atoms: _451  and  _452
REMARK  189  A    between atoms: _454  and  _456
REMARK  190  A    between atoms: _456  and  _457
REMARK  191  A    between atoms: _459  and  _461
REMARK  192  A    between atoms: _461  and  _462
REMARK  193  A    between atoms: _461  and  _464
REMARK  194  A    between atoms: _464  and  _465
REMARK  195  A    between atoms: _471  and  _473
REMARK  196  A    between atoms: _473  and  _474
REMARK  197  A    between atoms: _473  and  _476
REMARK  198  A    between atoms: _476  and  _477
REMARK  199  A    between atoms: _480  and  _482
REMARK  200  A    between atoms: _482  and  _483
REMARK  201  A    between atoms: _482  and  _485
REMARK  202  A    between atoms: _488  and  _490
REMARK  203  A    between atoms: _490  and  _491
REMARK  204  A    between atoms: _490  and  _493
REMARK  205  A    between atoms: _493  and  _494
REMARK  206  A    between atoms: _497  and  _499
REMARK  207  A    between atoms: _499  and  _500
REMARK  208  A    between atoms: _499  and  _502
REMARK  209  A    between atoms: _502  and  _503
REMARK  210  A    between atoms: _507  and  _508
REMARK  211  A    between atoms: _513  and  _515
REMARK  212  A    between atoms: _515  and  _516
REMARK  213  A    between atoms: _515  and  _518
REMARK  214  A    between atoms: _518  and  _519
REMARK  215  A    between atoms: _522  and  _524
REMARK  216  A    between atoms: _524  and  _525
REMARK  217  A    between atoms: _524  and  _527
REMARK  218  A    between atoms: _527  and  _528
REMARK  219  A    between atoms: _533  and  _535
REMARK  220  A    between atoms: _535  and  _536
REMARK  221  A    between atoms: _535  and  _538
REMARK  222  A    between atoms: _541  and  _543
REMARK  223  A    between atoms: _543  and  _544
REMARK  224  A    between atoms: _543  and  _546
REMARK  225  A    between atoms: _546  and  _547
REMARK  226  A    between atoms: _550  and  _552
REMARK  227  A    between atoms: _552  and  _553
REMARK  228  A    between atoms: _555  and  _557
REMARK  229  A    between atoms: _557  and  _558
REMARK  230  A    between atoms: _557  and  _560
REMARK  231  A    between atoms: _560  and  _561
REMARK  232  A    between atoms: _561  and  _562
REMARK  233  A    between atoms: _562  and  _563
REMARK                            x       y       z     vdW  Elec       q    Type
REMARK                         _______ _______ _______ _____ _____    ______ ____
ROOT
ATOM      1  O   HOH     1      21.067  21.120   9.072  0.00  0.00    +0.000 OA
ENDROOT
TORSDOF 0
REMARK  Name = ../refined-set-2016/2xye/2xye_pocket.pdb
REMARK  233 active torsions:
REMARK  status: ('A' for Active; 'I' for Inactive)
REMARK    1  A    between atoms: _1  and  _3
REMARK    2  A    between atoms: _3  and  _4
REMARK    3  A    between atoms: _3  and  _6
REMARK    4  A    between atoms: _6  and  _7
REMARK    5  A    between atoms: _7  and  _8
REMARK    6  A    between atoms: _8  and  _9
REMARK    7  A    between atoms: _18  and  _20
REMARK    8  A    between atoms: _20  and  _21
REMARK    9  A    between atoms: _20  and  _23
REMARK   10  A    between atoms: _23  and  _24
REMARK   11  A    between atoms: _27  and  _29
REMARK   12  A    between atoms: _29  and  _30
REMARK   13  A    between atoms: _29  and  _32
REMARK   14  A    between atoms: _32  and  _33
REMARK   15  A    between atoms: _36  and  _38
REMARK   16  A    between atoms: _38  and  _39
REMARK   17  A    between atoms: _38  and  _41
REMARK   18  A    between atoms: _41  and  _42
REMARK   19  A    between atoms: _45  and  _47
REMARK   20  A    between atoms: _47  and  _48
REMARK   21  A    between atoms: _47  and  _50
REMARK   22  A    between atoms: _50  and  _51
REMARK   23  A    between atoms: _54  and  _56
REMARK   24  A    between atoms: _56  and  _57
REMARK   25  A    between atoms: _59  and  _61
REMARK   26  A    between atoms: _61  and  _62
REMARK   27  A    between atoms: _65  and  _67
REMARK   28  A    between atoms: _67  and  _68
REMARK   29  A    between atoms: _67  and  _70
REMARK   30  A    between atoms: _70  and  _71
REMARK   31  A    between atoms: _74  and  _76
REMARK   32  A    between atoms: _76  and  _77
REMARK   33  A    between atoms: _76  and  _79
REMARK   34  A    between atoms: _79  and  _80
REMARK   35  A    between atoms: _83  and  _85
REMARK   36  A    between atoms: _85  and  _86
REMARK   37  A    between atoms: _85  and  _88
REMARK   38  A    between atoms: _88  and  _89
REMARK   39  A    between atoms: _92  and  _94
REMARK   40  A    between atoms: _94  and  _95
REMARK   41  A    between atoms: _94  and  _97
REMARK   42  A    between atoms: _100  and  _102
REMARK   43  A    between atoms: _102  and  _103
REMARK   44  A    between atoms: _102  and  _105
REMARK   45  A    between atoms: _105  and  _106
REMARK   46  A    between atoms: _106  and  _107
REMARK   47  A    between atoms: _107  and  _108
REMARK   48  A    between atoms: _108  and  _109
REMARK   49  A    between atoms: _113  and  _115
REMARK   50  A    between atoms: _115  and  _116
REMARK   51  A    between atoms: _115  and  _118
REMARK   52  A    between atoms: _118  and  _119
REMARK   53  A    between atoms: _119  and  _120
REMARK   54  A    between atoms: _122  and  _124
REMARK   55  A    between atoms: _124  and  _125
REMARK   56  A    between atoms: _124  and  _127
REMARK   57  A    between atoms: _127  and  _128
REMARK   58  A    between atoms: _131  and  _133
REMARK   59  A    between atoms: _133  and  _134
REMARK   60  A    between atoms: _136  and  _138
REMARK   61  A    between atoms: _138  and  _139
REMARK   62  A    between atoms: _141  and  _143
REMARK   63  A    between atoms: _143  and  _144
REMARK   64  A    between atoms: _143  and  _146
REMARK   65  A    between atoms: _146  and  _147
REMARK   66  A    between atoms: _150  and  _152
REMARK   67  A    between atoms: _152  and  _153
REMARK   68  A    between atoms: _155  and  _157
REMARK   69  A    between atoms: _157  and  _158
REMARK   70  A    between atoms: _160  and  _162
REMARK   71  A    between atoms: _162  and  _163
REMARK   72  A    between atoms: _162  and  _165
REMARK   73  A    between atoms: _165  and  _166
REMARK   74  A    between atoms: _172  and  _174
REMARK   75  A    between atoms: _174  and  _175
REMARK   76  A    between atoms: _174  and  _177
REMARK   77  A    between atoms: _177  and  _178
REMARK   78  A    between atoms: _181  and  _183
REMARK   79  A    between atoms: _183  and  _184
REMARK   80  A    between atoms: _183  and  _186
REMARK   81  A    between atoms: _189  and  _191
REMARK   82  A    between atoms: _191  and  _192
REMARK   83  A    between atoms: _191  and  _194
REMARK   84  A    between atoms: _194  and  _195
REMARK   85  A    between atoms: _198  and  _200
REMARK   86  A    between atoms: _200  and  _201
REMARK   87  A    between atoms: _200  and  _203
REMARK   88  A    between atoms: _203  and  _204
REMARK   89  A    between atoms: _208  and  _209
REMARK   90  A    between atoms: _214  and  _216
REMARK   91  A    between atoms: _216  and  _217
REMARK   92  A    between atoms: _216  and  _219
REMARK   93  A    between atoms: _219  and  _220
REMARK   94  A    between atoms: _223  and  _225
REMARK   95  A    between atoms: _225  and  _226
REMARK   96  A    between atoms: _225  and  _228
REMARK   97  A    between atoms: _228  and  _229
REMARK   98  A    between atoms: _234  and  _236
REMARK   99  A    between atoms: _236  and  _237
REMARK  100  A    between atoms: _236  and  _239
REMARK  101  A    between atoms: _242  and  _244
REMARK  102  A    between atoms: _244  and  _245
REMARK  103  A    between atoms: _244  and  _247
REMARK  104  A    between atoms: _247  and  _248
REMARK  105  A    between atoms: _251  and  _253
REMARK  106  A    between atoms: _253  and  _254
REMARK  107  A    between atoms: _256  and  _258
REMARK  108  A    between atoms: _258  and  _259
REMARK  109  A    between atoms: _258  and  _261
REMARK  110  A    between atoms: _261  and  _262
REMARK  111  A    between atoms: _262  and  _263
REMARK  112  A    between atoms: _263  and  _264
REMARK  113  A    between atoms: _273  and  _275
REMARK  114  A    between atoms: _275  and  _276
REMARK  115  A    between atoms: _275  and  _278
REMARK  116  A    between atoms: _278  and  _279
REMARK  117  A    between atoms: _284  and  _286
REMARK  118  A    between atoms: _286  and  _287
REMARK  119  A    between atoms: _286  and  _289
REMARK  120  A    between atoms: _289  and  _290
REMARK  121  A    between atoms: _290  and  _291
REMARK  122  A    between atoms: _291  and  _292
REMARK  123  A    between atoms: _302  and  _303
REMARK  124  A    between atoms: _308  and  _310
REMARK  125  A    between atoms: _310  and  _311
REMARK  126  A    between atoms: _310  and  _313
REMARK  127  A    between atoms: _313  and  _314
REMARK  128  A    between atoms: _317  and  _319
REMARK  129  A    between atoms: _319  and  _320
REMARK  130  A    between atoms: _319  and  _322
REMARK  131  A    between atoms: _322  and  _323
REMARK  132  A    between atoms: _326  and  _328
REMARK  133  A    between atoms: _328  and  _329
REMARK  134  A    between atoms: _328  and  _331
REMARK  135  A    between atoms: _331  and  _332
REMARK  136  A    between atoms: _335  and  _337
REMARK  137  A    between atoms: _337  and  _338
REMARK  138  A    between atoms: _337  and  _340
REMARK  139  A    between atoms: _340  and  _341
REMARK  140  A    between atoms: _344  and  _346
REMARK  141  A    between atoms: _346  and  _347
REMARK  142  A    between atoms: _346  and  _349
REMARK  143  A    between atoms: _349  and  _350
REMARK  144  A    between atoms: _353  and  _355
REMARK  145  A    between atoms: _355  and  _356
REMARK  146  A    between atoms: _358  and  _360
REMARK  147  A    between atoms: _360  and  _361
REMARK  148  A    between atoms: _364  and  _366
REMARK  149  A    between atoms: _366  and  _367
REMARK  150  A    between atoms: _366  and  _369
REMARK  151  A    between atoms: _369  and  _370
REMARK  152  A    between atoms: _373  and  _375
REMARK  153  A    between atoms: _375  and  _376
REMARK  154  A    between atoms: _375  and  _378
REMARK  155  A    between atoms: _378  and  _379
REMARK  156  A    between atoms: _382  and  _384
REMARK  157  A    between atoms: _384  and  _385
REMARK  158  A    between atoms: _384  and  _387
REMARK  159  A    between atoms: _387  and  _388
REMARK  160  A    between atoms: _391  and  _393
REMARK  161  A    between atoms: _393  and  _394
REMARK  162  A    between atoms: _393  and  _396
REMARK  163  A    between atoms: _399  and  _401
REMARK  164  A    between atoms: _401  and  _402
REMARK  165  A    between atoms: _401  and  _404
REMARK  166  A    between atoms: _404  and  _405
REMARK  167  A    between atoms: _405  and  _406
REMARK  168  A    between atoms: _406  and  _407
REMARK  169  A    between atoms: _407  and  _408
REMARK  170  A    between atoms: _412  and  _414
REMARK  171  A    between atoms: _414  and  _415
REMARK  172  A    between atoms: _414  and  _417
REMARK  173  A    between atoms: _417  and  _418
REMARK  174  A    between atoms: _418  and  _419
REMARK  175  A    between atoms: _421  and  _423
REMARK  176  A    between atoms: _423  and  _424
REMARK  177  A    between atoms: _423  and  _426
REMARK  178  A    between atoms: _426  and  _427
REMARK  179  A    between atoms: _430  and  _432
REMARK  180  A    between atoms: _432  and  _433
REMARK  181  A    between atoms: _435  and  _437
REMARK  182  A    between atoms: _437  and  _438
REMARK  183  A    between atoms: _440  and  _442
REMARK  184  A    between atoms: _442  and  _443
REMARK  185  A    between atoms: _442  and  _445
REMARK  186  A    between atoms: _445  and  _446
REMARK  187  A    between atoms: _449  and  _451
REMARK  188  A    between atoms: _451  and  _452
REMARK  189  A    between atoms: _454  and  _456
REMARK  190  A    between atoms: _456  and  _457
REMARK  191  A    between atoms: _459  and  _461
REMARK  192  A    between atoms: _461  and  _462
REMARK  193  A    between atoms: _461  and  _464
REMARK  194  A    between atoms: _464  and  _465
REMARK  195  A    between atoms: _471  and  _473
REMARK  196  A    between atoms: _473  and  _474
REMARK  197  A    between atoms: _473  and  _476
REMARK  198  A    between atoms: _476  and  _477
REMARK  199  A    between atoms: _480  and  _482
REMARK  200  A    between atoms: _482  and  _483
REMARK  201  A    between atoms: _482  and  _485
REMARK  202  A    between atoms: _488  and  _490
REMARK  203  A    between atoms: _490  and  _491
REMARK  204  A    between atoms: _490  and  _493
REMARK  205  A    between atoms: _493  and  _494
REMARK  206  A    between atoms: _497  and  _499
REMARK  207  A    between atoms: _499  and  _500
REMARK  208  A    between atoms: _499  and  _502
REMARK  209  A    between atoms: _502  and  _503
REMARK  210  A    between atoms: _507  and  _508
REMARK  211  A    between atoms: _513  and  _515
REMARK  212  A    between atoms: _515  and  _516
REMARK  213  A    between atoms: _515  and  _518
REMARK  214  A    between atoms: _518  and  _519
REMARK  215  A    between atoms: _522  and  _524
REMARK  216  A    between atoms: _524  and  _525
REMARK  217  A    between atoms: _524  and  _527
REMARK  218  A    between atoms: _527  and  _528
REMARK  219  A    between atoms: _533  and  _535
REMARK  220  A    between atoms: _535  and  _536
REMARK  221  A    between atoms: _535  and  _538
REMARK  222  A    between atoms: _541  and  _543
REMARK  223  A    between atoms: _543  and  _544
REMARK  224  A    between atoms: _543  and  _546
REMARK  225  A    between atoms: _546  and  _547
REMARK  226  A    between atoms: _550  and  _552
REMARK  227  A    between atoms: _552  and  _553
REMARK  228  A    between atoms: _555  and  _557
REMARK  229  A    between atoms: _557  and  _558
REMARK  230  A    between atoms: _557  and  _560
REMARK  231  A    between atoms: _560  and  _561
REMARK  232  A    between atoms: _561  and  _562
REMARK  233  A    between atoms: _562  and  _563
REMARK                            x       y       z     vdW  Elec       q    Type
REMARK                         _______ _______ _______ _____ _____    ______ ____
ROOT
ATOM      1  O   HOH     1      25.024  21.581  11.579  0.00  0.00    +0.000 OA
ENDROOT
TORSDOF 0
REMARK  Name = ../refined-set-2016/2xye/2xye_pocket.pdb
REMARK  233 active torsions:
REMARK  status: ('A' for Active; 'I' for Inactive)
REMARK    1  A    between atoms: _1  and  _3
REMARK    2  A    between atoms: _3  and  _4
REMARK    3  A    between atoms: _3  and  _6
REMARK    4  A    between atoms: _6  and  _7
REMARK    5  A    between atoms: _7  and  _8
REMARK    6  A    between atoms: _8  and  _9
REMARK    7  A    between atoms: _18  and  _20
REMARK    8  A    between atoms: _20  and  _21
REMARK    9  A    between atoms: _20  and  _23
REMARK   10  A    between atoms: _23  and  _24
REMARK   11  A    between atoms: _27  and  _29
REMARK   12  A    between atoms: _29  and  _30
REMARK   13  A    between atoms: _29  and  _32
REMARK   14  A    between atoms: _32  and  _33
REMARK   15  A    between atoms: _36  and  _38
REMARK   16  A    between atoms: _38  and  _39
REMARK   17  A    between atoms: _38  and  _41
REMARK   18  A    between atoms: _41  and  _42
REMARK   19  A    between atoms: _45  and  _47
REMARK   20  A    between atoms: _47  and  _48
REMARK   21  A    between atoms: _47  and  _50
REMARK   22  A    between atoms: _50  and  _51
REMARK   23  A    between atoms: _54  and  _56
REMARK   24  A    between atoms: _56  and  _57
REMARK   25  A    between atoms: _59  and  _61
REMARK   26  A    between atoms: _61  and  _62
REMARK   27  A    between atoms: _65  and  _67
REMARK   28  A    between atoms: _67  and  _68
REMARK   29  A    between atoms: _67  and  _70
REMARK   30  A    between atoms: _70  and  _71
REMARK   31  A    between atoms: _74  and  _76
REMARK   32  A    between atoms: _76  and  _77
REMARK   33  A    between atoms: _76  and  _79
REMARK   34  A    between atoms: _79  and  _80
REMARK   35  A    between atoms: _83  and  _85
REMARK   36  A    between atoms: _85  and  _86
REMARK   37  A    between atoms: _85  and  _88
REMARK   38  A    between atoms: _88  and  _89
REMARK   39  A    between atoms: _92  and  _94
REMARK   40  A    between atoms: _94  and  _95
REMARK   41  A    between atoms: _94  and  _97
REMARK   42  A    between atoms: _100  and  _102
REMARK   43  A    between atoms: _102  and  _103
REMARK   44  A    between atoms: _102  and  _105
REMARK   45  A    between atoms: _105  and  _106
REMARK   46  A    between atoms: _106  and  _107
REMARK   47  A    between atoms: _107  and  _108
REMARK   48  A    between atoms: _108  and  _109
REMARK   49  A    between atoms: _113  and  _115
REMARK   50  A    between atoms: _115  and  _116
REMARK   51  A    between atoms: _115  and  _118
REMARK   52  A    between atoms: _118  and  _119
REMARK   53  A    between atoms: _119  and  _120
REMARK   54  A    between atoms: _122  and  _124
REMARK   55  A    between atoms: _124  and  _125
REMARK   56  A    between atoms: _124  and  _127
REMARK   57  A    between atoms: _127  and  _128
REMARK   58  A    between atoms: _131  and  _133
REMARK   59  A    between atoms: _133  and  _134
REMARK   60  A    between atoms: _136  and  _138
REMARK   61  A    between atoms: _138  and  _139
REMARK   62  A    between atoms: _141  and  _143
REMARK   63  A    between atoms: _143  and  _144
REMARK   64  A    between atoms: _143  and  _146
REMARK   65  A    between atoms: _146  and  _147
REMARK   66  A    between atoms: _150  and  _152
REMARK   67  A    between atoms: _152  and  _153
REMARK   68  A    between atoms: _155  and  _157
REMARK   69  A    between atoms: _157  and  _158
REMARK   70  A    between atoms: _160  and  _162
REMARK   71  A    between atoms: _162  and  _163
REMARK   72  A    between atoms: _162  and  _165
REMARK   73  A    between atoms: _165  and  _166
REMARK   74  A    between atoms: _172  and  _174
REMARK   75  A    between atoms: _174  and  _175
REMARK   76  A    between atoms: _174  and  _177
REMARK   77  A    between atoms: _177  and  _178
REMARK   78  A    between atoms: _181  and  _183
REMARK   79  A    between atoms: _183  and  _184
REMARK   80  A    between atoms: _183  and  _186
REMARK   81  A    between atoms: _189  and  _191
REMARK   82  A    between atoms: _191  and  _192
REMARK   83  A    between atoms: _191  and  _194
REMARK   84  A    between atoms: _194  and  _195
REMARK   85  A    between atoms: _198  and  _200
REMARK   86  A    between atoms: _200  and  _201
REMARK   87  A    between atoms: _200  and  _203
REMARK   88  A    between atoms: _203  and  _204
REMARK   89  A    between atoms: _208  and  _209
REMARK   90  A    between atoms: _214  and  _216
REMARK   91  A    between atoms: _216  and  _217
REMARK   92  A    between atoms: _216  and  _219
REMARK   93  A    between atoms: _219  and  _220
REMARK   94  A    between atoms: _223  and  _225
REMARK   95  A    between atoms: _225  and  _226
REMARK   96  A    between atoms: _225  and  _228
REMARK   97  A    between atoms: _228  and  _229
REMARK   98  A    between atoms: _234  and  _236
REMARK   99  A    between atoms: _236  and  _237
REMARK  100  A    between atoms: _236  and  _239
REMARK  101  A    between atoms: _242  and  _244
REMARK  102  A    between atoms: _244  and  _245
REMARK  103  A    between atoms: _244  and  _247
REMARK  104  A    between atoms: _247  and  _248
REMARK  105  A    between atoms: _251  and  _253
REMARK  106  A    between atoms: _253  and  _254
REMARK  107  A    between atoms: _256  and  _258
REMARK  108  A    between atoms: _258  and  _259
REMARK  109  A    between atoms: _258  and  _261
REMARK  110  A    between atoms: _261  and  _262
REMARK  111  A    between atoms: _262  and  _263
REMARK  112  A    between atoms: _263  and  _264
REMARK  113  A    between atoms: _273  and  _275
REMARK  114  A    between atoms: _275  and  _276
REMARK  115  A    between atoms: _275  and  _278
REMARK  116  A    between atoms: _278  and  _279
REMARK  117  A    between atoms: _284  and  _286
REMARK  118  A    between atoms: _286  and  _287
REMARK  119  A    between atoms: _286  and  _289
REMARK  120  A    between atoms: _289  and  _290
REMARK  121  A    between atoms: _290  and  _291
REMARK  122  A    between atoms: _291  and  _292
REMARK  123  A    between atoms: _302  and  _303
REMARK  124  A    between atoms: _308  and  _310
REMARK  125  A    between atoms: _310  and  _311
REMARK  126  A    between atoms: _310  and  _313
REMARK  127  A    between atoms: _313  and  _314
REMARK  128  A    between atoms: _317  and  _319
REMARK  129  A    between atoms: _319  and  _320
REMARK  130  A    between atoms: _319  and  _322
REMARK  131  A    between atoms: _322  and  _323
REMARK  132  A    between atoms: _326  and  _328
REMARK  133  A    between atoms: _328  and  _329
REMARK  134  A    between atoms: _328  and  _331
REMARK  135  A    between atoms: _331  and  _332
REMARK  136  A    between atoms: _335  and  _337
REMARK  137  A    between atoms: _337  and  _338
REMARK  138  A    between atoms: _337  and  _340
REMARK  139  A    between atoms: _340  and  _341
REMARK  140  A    between atoms: _344  and  _346
REMARK  141  A    between atoms: _346  and  _347
REMARK  142  A    between atoms: _346  and  _349
REMARK  143  A    between atoms: _349  and  _350
REMARK  144  A    between atoms: _353  and  _355
REMARK  145  A    between atoms: _355  and  _356
REMARK  146  A    between atoms: _358  and  _360
REMARK  147  A    between atoms: _360  and  _361
REMARK  148  A    between atoms: _364  and  _366
REMARK  149  A    between atoms: _366  and  _367
REMARK  150  A    between atoms: _366  and  _369
REMARK  151  A    between atoms: _369  and  _370
REMARK  152  A    between atoms: _373  and  _375
REMARK  153  A    between atoms: _375  and  _376
REMARK  154  A    between atoms: _375  and  _378
REMARK  155  A    between atoms: _378  and  _379
REMARK  156  A    between atoms: _382  and  _384
REMARK  157  A    between atoms: _384  and  _385
REMARK  158  A    between atoms: _384  and  _387
REMARK  159  A    between atoms: _387  and  _388
REMARK  160  A    between atoms: _391  and  _393
REMARK  161  A    between atoms: _393  and  _394
REMARK  162  A    between atoms: _393  and  _396
REMARK  163  A    between atoms: _399  and  _401
REMARK  164  A    between atoms: _401  and  _402
REMARK  165  A    between atoms: _401  and  _404
REMARK  166  A    between atoms: _404  and  _405
REMARK  167  A    between atoms: _405  and  _406
REMARK  168  A    between atoms: _406  and  _407
REMARK  169  A    between atoms: _407  and  _408
REMARK  170  A    between atoms: _412  and  _414
REMARK  171  A    between atoms: _414  and  _415
REMARK  172  A    between atoms: _414  and  _417
REMARK  173  A    between atoms: _417  and  _418
REMARK  174  A    between atoms: _418  and  _419
REMARK  175  A    between atoms: _421  and  _423
REMARK  176  A    between atoms: _423  and  _424
REMARK  177  A    between atoms: _423  and  _426
REMARK  178  A    between atoms: _426  and  _427
REMARK  179  A    between atoms: _430  and  _432
REMARK  180  A    between atoms: _432  and  _433
REMARK  181  A    between atoms: _435  and  _437
REMARK  182  A    between atoms: _437  and  _438
REMARK  183  A    between atoms: _440  and  _442
REMARK  184  A    between atoms: _442  and  _443
REMARK  185  A    between atoms: _442  and  _445
REMARK  186  A    between atoms: _445  and  _446
REMARK  187  A    between atoms: _449  and  _451
REMARK  188  A    between atoms: _451  and  _452
REMARK  189  A    between atoms: _454  and  _456
REMARK  190  A    between atoms: _456  and  _457
REMARK  191  A    between atoms: _459  and  _461
REMARK  192  A    between atoms: _461  and  _462
REMARK  193  A    between atoms: _461  and  _464
REMARK  194  A    between atoms: _464  and  _465
REMARK  195  A    between atoms: _471  and  _473
REMARK  196  A    between atoms: _473  and  _474
REMARK  197  A    between atoms: _473  and  _476
REMARK  198  A    between atoms: _476  and  _477
REMARK  199  A    between atoms: _480  and  _482
REMARK  200  A    between atoms: _482  and  _483
REMARK  201  A    between atoms: _482  and  _485
REMARK  202  A    between atoms: _488  and  _490
REMARK  203  A    between atoms: _490  and  _491
REMARK  204  A    between atoms: _490  and  _493
REMARK  205  A    between atoms: _493  and  _494
REMARK  206  A    between atoms: _497  and  _499
REMARK  207  A    between atoms: _499  and  _500
REMARK  208  A    between atoms: _499  and  _502
REMARK  209  A    between atoms: _502  and  _503
REMARK  210  A    between atoms: _507  and  _508
REMARK  211  A    between atoms: _513  and  _515
REMARK  212  A    between atoms: _515  and  _516
REMARK  213  A    between atoms: _515  and  _518
REMARK  214  A    between atoms: _518  and  _519
REMARK  215  A    between atoms: _522  and  _524
REMARK  216  A    between atoms: _524  and  _525
REMARK  217  A    between atoms: _524  and  _527
REMARK  218  A    between atoms: _527  and  _528
REMARK  219  A    between atoms: _533  and  _535
REMARK  220  A    between atoms: _535  and  _536
REMARK  221  A    between atoms: _535  and  _538
REMARK  222  A    between atoms: _541  and  _543
REMARK  223  A    between atoms: _543  and  _544
REMARK  224  A    between atoms: _543  and  _546
REMARK  225  A    between atoms: _546  and  _547
REMARK  226  A    between atoms: _550  and  _552
REMARK  227  A    between atoms: _552  and  _553
REMARK  228  A    between atoms: _555  and  _557
REMARK  229  A    between atoms: _557  and  _558
REMARK  230  A    between atoms: _557  and  _560
REMARK  231  A    between atoms: _560  and  _561
REMARK  232  A    between atoms: _561  and  _562
REMARK  233  A    between atoms: _562  and  _563
REMARK                            x       y       z     vdW  Elec       q    Type
REMARK                         _______ _______ _______ _____ _____    ______ ____
ROOT
ATOM      1  O   HOH     1       8.864  29.004   2.089  0.00  0.00    +0.000 OA
ENDROOT
TORSDOF 0
REMARK  Name = ../refined-set-2016/2xye/2xye_pocket.pdb
REMARK  233 active torsions:
REMARK  status: ('A' for Active; 'I' for Inactive)
REMARK    1  A    between atoms: _1  and  _3
REMARK    2  A    between atoms: _3  and  _4
REMARK    3  A    between atoms: _3  and  _6
REMARK    4  A    between atoms: _6  and  _7
REMARK    5  A    between atoms: _7  and  _8
REMARK    6  A    between atoms: _8  and  _9
REMARK    7  A    between atoms: _18  and  _20
REMARK    8  A    between atoms: _20  and  _21
REMARK    9  A    between atoms: _20  and  _23
REMARK   10  A    between atoms: _23  and  _24
REMARK   11  A    between atoms: _27  and  _29
REMARK   12  A    between atoms: _29  and  _30
REMARK   13  A    between atoms: _29  and  _32
REMARK   14  A    between atoms: _32  and  _33
REMARK   15  A    between atoms: _36  and  _38
REMARK   16  A    between atoms: _38  and  _39
REMARK   17  A    between atoms: _38  and  _41
REMARK   18  A    between atoms: _41  and  _42
REMARK   19  A    between atoms: _45  and  _47
REMARK   20  A    between atoms: _47  and  _48
REMARK   21  A    between atoms: _47  and  _50
REMARK   22  A    between atoms: _50  and  _51
REMARK   23  A    between atoms: _54  and  _56
REMARK   24  A    between atoms: _56  and  _57
REMARK   25  A    between atoms: _59  and  _61
REMARK   26  A    between atoms: _61  and  _62
REMARK   27  A    between atoms: _65  and  _67
REMARK   28  A    between atoms: _67  and  _68
REMARK   29  A    between atoms: _67  and  _70
REMARK   30  A    between atoms: _70  and  _71
REMARK   31  A    between atoms: _74  and  _76
REMARK   32  A    between atoms: _76  and  _77
REMARK   33  A    between atoms: _76  and  _79
REMARK   34  A    between atoms: _79  and  _80
REMARK   35  A    between atoms: _83  and  _85
REMARK   36  A    between atoms: _85  and  _86
REMARK   37  A    between atoms: _85  and  _88
REMARK   38  A    between atoms: _88  and  _89
REMARK   39  A    between atoms: _92  and  _94
REMARK   40  A    between atoms: _94  and  _95
REMARK   41  A    between atoms: _94  and  _97
REMARK   42  A    between atoms: _100  and  _102
REMARK   43  A    between atoms: _102  and  _103
REMARK   44  A    between atoms: _102  and  _105
REMARK   45  A    between atoms: _105  and  _106
REMARK   46  A    between atoms: _106  and  _107
REMARK   47  A    between atoms: _107  and  _108
REMARK   48  A    between atoms: _108  and  _109
REMARK   49  A    between atoms: _113  and  _115
REMARK   50  A    between atoms: _115  and  _116
REMARK   51  A    between atoms: _115  and  _118
REMARK   52  A    between atoms: _118  and  _119
REMARK   53  A    between atoms: _119  and  _120
REMARK   54  A    between atoms: _122  and  _124
REMARK   55  A    between atoms: _124  and  _125
REMARK   56  A    between atoms: _124  and  _127
REMARK   57  A    between atoms: _127  and  _128
REMARK   58  A    between atoms: _131  and  _133
REMARK   59  A    between atoms: _133  and  _134
REMARK   60  A    between atoms: _136  and  _138
REMARK   61  A    between atoms: _138  and  _139
REMARK   62  A    between atoms: _141  and  _143
REMARK   63  A    between atoms: _143  and  _144
REMARK   64  A    between atoms: _143  and  _146
REMARK   65  A    between atoms: _146  and  _147
REMARK   66  A    between atoms: _150  and  _152
REMARK   67  A    between atoms: _152  and  _153
REMARK   68  A    between atoms: _155  and  _157
REMARK   69  A    between atoms: _157  and  _158
REMARK   70  A    between atoms: _160  and  _162
REMARK   71  A    between atoms: _162  and  _163
REMARK   72  A    between atoms: _162  and  _165
REMARK   73  A    between atoms: _165  and  _166
REMARK   74  A    between atoms: _172  and  _174
REMARK   75  A    between atoms: _174  and  _175
REMARK   76  A    between atoms: _174  and  _177
REMARK   77  A    between atoms: _177  and  _178
REMARK   78  A    between atoms: _181  and  _183
REMARK   79  A    between atoms: _183  and  _184
REMARK   80  A    between atoms: _183  and  _186
REMARK   81  A    between atoms: _189  and  _191
REMARK   82  A    between atoms: _191  and  _192
REMARK   83  A    between atoms: _191  and  _194
REMARK   84  A    between atoms: _194  and  _195
REMARK   85  A    between atoms: _198  and  _200
REMARK   86  A    between atoms: _200  and  _201
REMARK   87  A    between atoms: _200  and  _203
REMARK   88  A    between atoms: _203  and  _204
REMARK   89  A    between atoms: _208  and  _209
REMARK   90  A    between atoms: _214  and  _216
REMARK   91  A    between atoms: _216  and  _217
REMARK   92  A    between atoms: _216  and  _219
REMARK   93  A    between atoms: _219  and  _220
REMARK   94  A    between atoms: _223  and  _225
REMARK   95  A    between atoms: _225  and  _226
REMARK   96  A    between atoms: _225  and  _228
REMARK   97  A    between atoms: _228  and  _229
REMARK   98  A    between atoms: _234  and  _236
REMARK   99  A    between atoms: _236  and  _237
REMARK  100  A    between atoms: _236  and  _239
REMARK  101  A    between atoms: _242  and  _244
REMARK  102  A    between atoms: _244  and  _245
REMARK  103  A    between atoms: _244  and  _247
REMARK  104  A    between atoms: _247  and  _248
REMARK  105  A    between atoms: _251  and  _253
REMARK  106  A    between atoms: _253  and  _254
REMARK  107  A    between atoms: _256  and  _258
REMARK  108  A    between atoms: _258  and  _259
REMARK  109  A    between atoms: _258  and  _261
REMARK  110  A    between atoms: _261  and  _262
REMARK  111  A    between atoms: _262  and  _263
REMARK  112  A    between atoms: _263  and  _264
REMARK  113  A    between atoms: _273  and  _275
REMARK  114  A    between atoms: _275  and  _276
REMARK  115  A    between atoms: _275  and  _278
REMARK  116  A    between atoms: _278  and  _279
REMARK  117  A    between atoms: _284  and  _286
REMARK  118  A    between atoms: _286  and  _287
REMARK  119  A    between atoms: _286  and  _289
REMARK  120  A    between atoms: _289  and  _290
REMARK  121  A    between atoms: _290  and  _291
REMARK  122  A    between atoms: _291  and  _292
REMARK  123  A    between atoms: _302  and  _303
REMARK  124  A    between atoms: _308  and  _310
REMARK  125  A    between atoms: _310  and  _311
REMARK  126  A    between atoms: _310  and  _313
REMARK  127  A    between atoms: _313  and  _314
REMARK  128  A    between atoms: _317  and  _319
REMARK  129  A    between atoms: _319  and  _320
REMARK  130  A    between atoms: _319  and  _322
REMARK  131  A    between atoms: _322  and  _323
REMARK  132  A    between atoms: _326  and  _328
REMARK  133  A    between atoms: _328  and  _329
REMARK  134  A    between atoms: _328  and  _331
REMARK  135  A    between atoms: _331  and  _332
REMARK  136  A    between atoms: _335  and  _337
REMARK  137  A    between atoms: _337  and  _338
REMARK  138  A    between atoms: _337  and  _340
REMARK  139  A    between atoms: _340  and  _341
REMARK  140  A    between atoms: _344  and  _346
REMARK  141  A    between atoms: _346  and  _347
REMARK  142  A    between atoms: _346  and  _349
REMARK  143  A    between atoms: _349  and  _350
REMARK  144  A    between atoms: _353  and  _355
REMARK  145  A    between atoms: _355  and  _356
REMARK  146  A    between atoms: _358  and  _360
REMARK  147  A    between atoms: _360  and  _361
REMARK  148  A    between atoms: _364  and  _366
REMARK  149  A    between atoms: _366  and  _367
REMARK  150  A    between atoms: _366  and  _369
REMARK  151  A    between atoms: _369  and  _370
REMARK  152  A    between atoms: _373  and  _375
REMARK  153  A    between atoms: _375  and  _376
REMARK  154  A    between atoms: _375  and  _378
REMARK  155  A    between atoms: _378  and  _379
REMARK  156  A    between atoms: _382  and  _384
REMARK  157  A    between atoms: _384  and  _385
REMARK  158  A    between atoms: _384  and  _387
REMARK  159  A    between atoms: _387  and  _388
REMARK  160  A    between atoms: _391  and  _393
REMARK  161  A    between atoms: _393  and  _394
REMARK  162  A    between atoms: _393  and  _396
REMARK  163  A    between atoms: _399  and  _401
REMARK  164  A    between atoms: _401  and  _402
REMARK  165  A    between atoms: _401  and  _404
REMARK  166  A    between atoms: _404  and  _405
REMARK  167  A    between atoms: _405  and  _406
REMARK  168  A    between atoms: _406  and  _407
REMARK  169  A    between atoms: _407  and  _408
REMARK  170  A    between atoms: _412  and  _414
REMARK  171  A    between atoms: _414  and  _415
REMARK  172  A    between atoms: _414  and  _417
REMARK  173  A    between atoms: _417  and  _418
REMARK  174  A    between atoms: _418  and  _419
REMARK  175  A    between atoms: _421  and  _423
REMARK  176  A    between atoms: _423  and  _424
REMARK  177  A    between atoms: _423  and  _426
REMARK  178  A    between atoms: _426  and  _427
REMARK  179  A    between atoms: _430  and  _432
REMARK  180  A    between atoms: _432  and  _433
REMARK  181  A    between atoms: _435  and  _437
REMARK  182  A    between atoms: _437  and  _438
REMARK  183  A    between atoms: _440  and  _442
REMARK  184  A    between atoms: _442  and  _443
REMARK  185  A    between atoms: _442  and  _445
REMARK  186  A    between atoms: _445  and  _446
REMARK  187  A    between atoms: _449  and  _451
REMARK  188  A    between atoms: _451  and  _452
REMARK  189  A    between atoms: _454  and  _456
REMARK  190  A    between atoms: _456  and  _457
REMARK  191  A    between atoms: _459  and  _461
REMARK  192  A    between atoms: _461  and  _462
REMARK  193  A    between atoms: _461  and  _464
REMARK  194  A    between atoms: _464  and  _465
REMARK  195  A    between atoms: _471  and  _473
REMARK  196  A    between atoms: _473  and  _474
REMARK  197  A    between atoms: _473  and  _476
REMARK  198  A    between atoms: _476  and  _477
REMARK  199  A    between atoms: _480  and  _482
REMARK  200  A    between atoms: _482  and  _483
REMARK  201  A    between atoms: _482  and  _485
REMARK  202  A    between atoms: _488  and  _490
REMARK  203  A    between atoms: _490  and  _491
REMARK  204  A    between atoms: _490  and  _493
REMARK  205  A    between atoms: _493  and  _494
REMARK  206  A    between atoms: _497  and  _499
REMARK  207  A    between atoms: _499  and  _500
REMARK  208  A    between atoms: _499  and  _502
REMARK  209  A    between atoms: _502  and  _503
REMARK  210  A    between atoms: _507  and  _508
REMARK  211  A    between atoms: _513  and  _515
REMARK  212  A    between atoms: _515  and  _516
REMARK  213  A    between atoms: _515  and  _518
REMARK  214  A    between atoms: _518  and  _519
REMARK  215  A    between atoms: _522  and  _524
REMARK  216  A    between atoms: _524  and  _525
REMARK  217  A    between atoms: _524  and  _527
REMARK  218  A    between atoms: _527  and  _528
REMARK  219  A    between atoms: _533  and  _535
REMARK  220  A    between atoms: _535  and  _536
REMARK  221  A    between atoms: _535  and  _538
REMARK  222  A    between atoms: _541  and  _543
REMARK  223  A    between atoms: _543  and  _544
REMARK  224  A    between atoms: _543  and  _546
REMARK  225  A    between atoms: _546  and  _547
REMARK  226  A    between atoms: _550  and  _552
REMARK  227  A    between atoms: _552  and  _553
REMARK  228  A    between atoms: _555  and  _557
REMARK  229  A    between atoms: _557  and  _558
REMARK  230  A    between atoms: _557  and  _560
REMARK  231  A    between atoms: _560  and  _561
REMARK  232  A    between atoms: _561  and  _562
REMARK  233  A    between atoms: _562  and  _563
REMARK                            x       y       z     vdW  Elec       q    Type
REMARK                         _______ _______ _______ _____ _____    ______ ____
ROOT
ATOM      1  O   HOH     1       8.339  35.649   5.609  0.00  0.00    +0.000 OA
ENDROOT
TORSDOF 0
REMARK  Name = ../refined-set-2016/2xye/2xye_pocket.pdb
REMARK  233 active torsions:
REMARK  status: ('A' for Active; 'I' for Inactive)
REMARK    1  A    between atoms: _1  and  _3
REMARK    2  A    between atoms: _3  and  _4
REMARK    3  A    between atoms: _3  and  _6
REMARK    4  A    between atoms: _6  and  _7
REMARK    5  A    between atoms: _7  and  _8
REMARK    6  A    between atoms: _8  and  _9
REMARK    7  A    between atoms: _18  and  _20
REMARK    8  A    between atoms: _20  and  _21
REMARK    9  A    between atoms: _20  and  _23
REMARK   10  A    between atoms: _23  and  _24
REMARK   11  A    between atoms: _27  and  _29
REMARK   12  A    between atoms: _29  and  _30
REMARK   13  A    between atoms: _29  and  _32
REMARK   14  A    between atoms: _32  and  _33
REMARK   15  A    between atoms: _36  and  _38
REMARK   16  A    between atoms: _38  and  _39
REMARK   17  A    between atoms: _38  and  _41
REMARK   18  A    between atoms: _41  and  _42
REMARK   19  A    between atoms: _45  and  _47
REMARK   20  A    between atoms: _47  and  _48
REMARK   21  A    between atoms: _47  and  _50
REMARK   22  A    between atoms: _50  and  _51
REMARK   23  A    between atoms: _54  and  _56
REMARK   24  A    between atoms: _56  and  _57
REMARK   25  A    between atoms: _59  and  _61
REMARK   26  A    between atoms: _61  and  _62
REMARK   27  A    between atoms: _65  and  _67
REMARK   28  A    between atoms: _67  and  _68
REMARK   29  A    between atoms: _67  and  _70
REMARK   30  A    between atoms: _70  and  _71
REMARK   31  A    between atoms: _74  and  _76
REMARK   32  A    between atoms: _76  and  _77
REMARK   33  A    between atoms: _76  and  _79
REMARK   34  A    between atoms: _79  and  _80
REMARK   35  A    between atoms: _83  and  _85
REMARK   36  A    between atoms: _85  and  _86
REMARK   37  A    between atoms: _85  and  _88
REMARK   38  A    between atoms: _88  and  _89
REMARK   39  A    between atoms: _92  and  _94
REMARK   40  A    between atoms: _94  and  _95
REMARK   41  A    between atoms: _94  and  _97
REMARK   42  A    between atoms: _100  and  _102
REMARK   43  A    between atoms: _102  and  _103
REMARK   44  A    between atoms: _102  and  _105
REMARK   45  A    between atoms: _105  and  _106
REMARK   46  A    between atoms: _106  and  _107
REMARK   47  A    between atoms: _107  and  _108
REMARK   48  A    between atoms: _108  and  _109
REMARK   49  A    between atoms: _113  and  _115
REMARK   50  A    between atoms: _115  and  _116
REMARK   51  A    between atoms: _115  and  _118
REMARK   52  A    between atoms: _118  and  _119
REMARK   53  A    between atoms: _119  and  _120
REMARK   54  A    between atoms: _122  and  _124
REMARK   55  A    between atoms: _124  and  _125
REMARK   56  A    between atoms: _124  and  _127
REMARK   57  A    between atoms: _127  and  _128
REMARK   58  A    between atoms: _131  and  _133
REMARK   59  A    between atoms: _133  and  _134
REMARK   60  A    between atoms: _136  and  _138
REMARK   61  A    between atoms: _138  and  _139
REMARK   62  A    between atoms: _141  and  _143
REMARK   63  A    between atoms: _143  and  _144
REMARK   64  A    between atoms: _143  and  _146
REMARK   65  A    between atoms: _146  and  _147
REMARK   66  A    between atoms: _150  and  _152
REMARK   67  A    between atoms: _152  and  _153
REMARK   68  A    between atoms: _155  and  _157
REMARK   69  A    between atoms: _157  and  _158
REMARK   70  A    between atoms: _160  and  _162
REMARK   71  A    between atoms: _162  and  _163
REMARK   72  A    between atoms: _162  and  _165
REMARK   73  A    between atoms: _165  and  _166
REMARK   74  A    between atoms: _172  and  _174
REMARK   75  A    between atoms: _174  and  _175
REMARK   76  A    between atoms: _174  and  _177
REMARK   77  A    between atoms: _177  and  _178
REMARK   78  A    between atoms: _181  and  _183
REMARK   79  A    between atoms: _183  and  _184
REMARK   80  A    between atoms: _183  and  _186
REMARK   81  A    between atoms: _189  and  _191
REMARK   82  A    between atoms: _191  and  _192
REMARK   83  A    between atoms: _191  and  _194
REMARK   84  A    between atoms: _194  and  _195
REMARK   85  A    between atoms: _198  and  _200
REMARK   86  A    between atoms: _200  and  _201
REMARK   87  A    between atoms: _200  and  _203
REMARK   88  A    between atoms: _203  and  _204
REMARK   89  A    between atoms: _208  and  _209
REMARK   90  A    between atoms: _214  and  _216
REMARK   91  A    between atoms: _216  and  _217
REMARK   92  A    between atoms: _216  and  _219
REMARK   93  A    between atoms: _219  and  _220
REMARK   94  A    between atoms: _223  and  _225
REMARK   95  A    between atoms: _225  and  _226
REMARK   96  A    between atoms: _225  and  _228
REMARK   97  A    between atoms: _228  and  _229
REMARK   98  A    between atoms: _234  and  _236
REMARK   99  A    between atoms: _236  and  _237
REMARK  100  A    between atoms: _236  and  _239
REMARK  101  A    between atoms: _242  and  _244
REMARK  102  A    between atoms: _244  and  _245
REMARK  103  A    between atoms: _244  and  _247
REMARK  104  A    between atoms: _247  and  _248
REMARK  105  A    between atoms: _251  and  _253
REMARK  106  A    between atoms: _253  and  _254
REMARK  107  A    between atoms: _256  and  _258
REMARK  108  A    between atoms: _258  and  _259
REMARK  109  A    between atoms: _258  and  _261
REMARK  110  A    between atoms: _261  and  _262
REMARK  111  A    between atoms: _262  and  _263
REMARK  112  A    between atoms: _263  and  _264
REMARK  113  A    between atoms: _273  and  _275
REMARK  114  A    between atoms: _275  and  _276
REMARK  115  A    between atoms: _275  and  _278
REMARK  116  A    between atoms: _278  and  _279
REMARK  117  A    between atoms: _284  and  _286
REMARK  118  A    between atoms: _286  and  _287
REMARK  119  A    between atoms: _286  and  _289
REMARK  120  A    between atoms: _289  and  _290
REMARK  121  A    between atoms: _290  and  _291
REMARK  122  A    between atoms: _291  and  _292
REMARK  123  A    between atoms: _302  and  _303
REMARK  124  A    between atoms: _308  and  _310
REMARK  125  A    between atoms: _310  and  _311
REMARK  126  A    between atoms: _310  and  _313
REMARK  127  A    between atoms: _313  and  _314
REMARK  128  A    between atoms: _317  and  _319
REMARK  129  A    between atoms: _319  and  _320
REMARK  130  A    between atoms: _319  and  _322
REMARK  131  A    between atoms: _322  and  _323
REMARK  132  A    between atoms: _326  and  _328
REMARK  133  A    between atoms: _328  and  _329
REMARK  134  A    between atoms: _328  and  _331
REMARK  135  A    between atoms: _331  and  _332
REMARK  136  A    between atoms: _335  and  _337
REMARK  137  A    between atoms: _337  and  _338
REMARK  138  A    between atoms: _337  and  _340
REMARK  139  A    between atoms: _340  and  _341
REMARK  140  A    between atoms: _344  and  _346
REMARK  141  A    between atoms: _346  and  _347
REMARK  142  A    between atoms: _346  and  _349
REMARK  143  A    between atoms: _349  and  _350
REMARK  144  A    between atoms: _353  and  _355
REMARK  145  A    between atoms: _355  and  _356
REMARK  146  A    between atoms: _358  and  _360
REMARK  147  A    between atoms: _360  and  _361
REMARK  148  A    between atoms: _364  and  _366
REMARK  149  A    between atoms: _366  and  _367
REMARK  150  A    between atoms: _366  and  _369
REMARK  151  A    between atoms: _369  and  _370
REMARK  152  A    between atoms: _373  and  _375
REMARK  153  A    between atoms: _375  and  _376
REMARK  154  A    between atoms: _375  and  _378
REMARK  155  A    between atoms: _378  and  _379
REMARK  156  A    between atoms: _382  and  _384
REMARK  157  A    between atoms: _384  and  _385
REMARK  158  A    between atoms: _384  and  _387
REMARK  159  A    between atoms: _387  and  _388
REMARK  160  A    between atoms: _391  and  _393
REMARK  161  A    between atoms: _393  and  _394
REMARK  162  A    between atoms: _393  and  _396
REMARK  163  A    between atoms: _399  and  _401
REMARK  164  A    between atoms: _401  and  _402
REMARK  165  A    between atoms: _401  and  _404
REMARK  166  A    between atoms: _404  and  _405
REMARK  167  A    between atoms: _405  and  _406
REMARK  168  A    between atoms: _406  and  _407
REMARK  169  A    between atoms: _407  and  _408
REMARK  170  A    between atoms: _412  and  _414
REMARK  171  A    between atoms: _414  and  _415
REMARK  172  A    between atoms: _414  and  _417
REMARK  173  A    between atoms: _417  and  _418
REMARK  174  A    between atoms: _418  and  _419
REMARK  175  A    between atoms: _421  and  _423
REMARK  176  A    between atoms: _423  and  _424
REMARK  177  A    between atoms: _423  and  _426
REMARK  178  A    between atoms: _426  and  _427
REMARK  179  A    between atoms: _430  and  _432
REMARK  180  A    between atoms: _432  and  _433
REMARK  181  A    between atoms: _435  and  _437
REMARK  182  A    between atoms: _437  and  _438
REMARK  183  A    between atoms: _440  and  _442
REMARK  184  A    between atoms: _442  and  _443
REMARK  185  A    between atoms: _442  and  _445
REMARK  186  A    between atoms: _445  and  _446
REMARK  187  A    between atoms: _449  and  _451
REMARK  188  A    between atoms: _451  and  _452
REMARK  189  A    between atoms: _454  and  _456
REMARK  190  A    between atoms: _456  and  _457
REMARK  191  A    between atoms: _459  and  _461
REMARK  192  A    between atoms: _461  and  _462
REMARK  193  A    between atoms: _461  and  _464
REMARK  194  A    between atoms: _464  and  _465
REMARK  195  A    between atoms: _471  and  _473
REMARK  196  A    between atoms: _473  and  _474
REMARK  197  A    between atoms: _473  and  _476
REMARK  198  A    between atoms: _476  and  _477
REMARK  199  A    between atoms: _480  and  _482
REMARK  200  A    between atoms: _482  and  _483
REMARK  201  A    between atoms: _482  and  _485
REMARK  202  A    between atoms: _488  and  _490
REMARK  203  A    between atoms: _490  and  _491
REMARK  204  A    between atoms: _490  and  _493
REMARK  205  A    between atoms: _493  and  _494
REMARK  206  A    between atoms: _497  and  _499
REMARK  207  A    between atoms: _499  and  _500
REMARK  208  A    between atoms: _499  and  _502
REMARK  209  A    between atoms: _502  and  _503
REMARK  210  A    between atoms: _507  and  _508
REMARK  211  A    between atoms: _513  and  _515
REMARK  212  A    between atoms: _515  and  _516
REMARK  213  A    between atoms: _515  and  _518
REMARK  214  A    between atoms: _518  and  _519
REMARK  215  A    between atoms: _522  and  _524
REMARK  216  A    between atoms: _524  and  _525
REMARK  217  A    between atoms: _524  and  _527
REMARK  218  A    between atoms: _527  and  _528
REMARK  219  A    between atoms: _533  and  _535
REMARK  220  A    between atoms: _535  and  _536
REMARK  221  A    between atoms: _535  and  _538
REMARK  222  A    between atoms: _541  and  _543
REMARK  223  A    between atoms: _543  and  _544
REMARK  224  A    between atoms: _543  and  _546
REMARK  225  A    between atoms: _546  and  _547
REMARK  226  A    between atoms: _550  and  _552
REMARK  227  A    between atoms: _552  and  _553
REMARK  228  A    between atoms: _555  and  _557
REMARK  229  A    between atoms: _557  and  _558
REMARK  230  A    between atoms: _557  and  _560
REMARK  231  A    between atoms: _560  and  _561
REMARK  232  A    between atoms: _561  and  _562
REMARK  233  A    between atoms: _562  and  _563
REMARK                            x       y       z     vdW  Elec       q    Type
REMARK                         _______ _______ _______ _____ _____    ______ ____
ROOT
ATOM      1  O   HOH     1       6.974  34.371  10.191  0.00  0.00    +0.000 OA
ENDROOT
TORSDOF 0
REMARK  Name = ../refined-set-2016/2xye/2xye_pocket.pdb
REMARK  233 active torsions:
REMARK  status: ('A' for Active; 'I' for Inactive)
REMARK    1  A    between atoms: _1  and  _3
REMARK    2  A    between atoms: _3  and  _4
REMARK    3  A    between atoms: _3  and  _6
REMARK    4  A    between atoms: _6  and  _7
REMARK    5  A    between atoms: _7  and  _8
REMARK    6  A    between atoms: _8  and  _9
REMARK    7  A    between atoms: _18  and  _20
REMARK    8  A    between atoms: _20  and  _21
REMARK    9  A    between atoms: _20  and  _23
REMARK   10  A    between atoms: _23  and  _24
REMARK   11  A    between atoms: _27  and  _29
REMARK   12  A    between atoms: _29  and  _30
REMARK   13  A    between atoms: _29  and  _32
REMARK   14  A    between atoms: _32  and  _33
REMARK   15  A    between atoms: _36  and  _38
REMARK   16  A    between atoms: _38  and  _39
REMARK   17  A    between atoms: _38  and  _41
REMARK   18  A    between atoms: _41  and  _42
REMARK   19  A    between atoms: _45  and  _47
REMARK   20  A    between atoms: _47  and  _48
REMARK   21  A    between atoms: _47  and  _50
REMARK   22  A    between atoms: _50  and  _51
REMARK   23  A    between atoms: _54  and  _56
REMARK   24  A    between atoms: _56  and  _57
REMARK   25  A    between atoms: _59  and  _61
REMARK   26  A    between atoms: _61  and  _62
REMARK   27  A    between atoms: _65  and  _67
REMARK   28  A    between atoms: _67  and  _68
REMARK   29  A    between atoms: _67  and  _70
REMARK   30  A    between atoms: _70  and  _71
REMARK   31  A    between atoms: _74  and  _76
REMARK   32  A    between atoms: _76  and  _77
REMARK   33  A    between atoms: _76  and  _79
REMARK   34  A    between atoms: _79  and  _80
REMARK   35  A    between atoms: _83  and  _85
REMARK   36  A    between atoms: _85  and  _86
REMARK   37  A    between atoms: _85  and  _88
REMARK   38  A    between atoms: _88  and  _89
REMARK   39  A    between atoms: _92  and  _94
REMARK   40  A    between atoms: _94  and  _95
REMARK   41  A    between atoms: _94  and  _97
REMARK   42  A    between atoms: _100  and  _102
REMARK   43  A    between atoms: _102  and  _103
REMARK   44  A    between atoms: _102  and  _105
REMARK   45  A    between atoms: _105  and  _106
REMARK   46  A    between atoms: _106  and  _107
REMARK   47  A    between atoms: _107  and  _108
REMARK   48  A    between atoms: _108  and  _109
REMARK   49  A    between atoms: _113  and  _115
REMARK   50  A    between atoms: _115  and  _116
REMARK   51  A    between atoms: _115  and  _118
REMARK   52  A    between atoms: _118  and  _119
REMARK   53  A    between atoms: _119  and  _120
REMARK   54  A    between atoms: _122  and  _124
REMARK   55  A    between atoms: _124  and  _125
REMARK   56  A    between atoms: _124  and  _127
REMARK   57  A    between atoms: _127  and  _128
REMARK   58  A    between atoms: _131  and  _133
REMARK   59  A    between atoms: _133  and  _134
REMARK   60  A    between atoms: _136  and  _138
REMARK   61  A    between atoms: _138  and  _139
REMARK   62  A    between atoms: _141  and  _143
REMARK   63  A    between atoms: _143  and  _144
REMARK   64  A    between atoms: _143  and  _146
REMARK   65  A    between atoms: _146  and  _147
REMARK   66  A    between atoms: _150  and  _152
REMARK   67  A    between atoms: _152  and  _153
REMARK   68  A    between atoms: _155  and  _157
REMARK   69  A    between atoms: _157  and  _158
REMARK   70  A    between atoms: _160  and  _162
REMARK   71  A    between atoms: _162  and  _163
REMARK   72  A    between atoms: _162  and  _165
REMARK   73  A    between atoms: _165  and  _166
REMARK   74  A    between atoms: _172  and  _174
REMARK   75  A    between atoms: _174  and  _175
REMARK   76  A    between atoms: _174  and  _177
REMARK   77  A    between atoms: _177  and  _178
REMARK   78  A    between atoms: _181  and  _183
REMARK   79  A    between atoms: _183  and  _184
REMARK   80  A    between atoms: _183  and  _186
REMARK   81  A    between atoms: _189  and  _191
REMARK   82  A    between atoms: _191  and  _192
REMARK   83  A    between atoms: _191  and  _194
REMARK   84  A    between atoms: _194  and  _195
REMARK   85  A    between atoms: _198  and  _200
REMARK   86  A    between atoms: _200  and  _201
REMARK   87  A    between atoms: _200  and  _203
REMARK   88  A    between atoms: _203  and  _204
REMARK   89  A    between atoms: _208  and  _209
REMARK   90  A    between atoms: _214  and  _216
REMARK   91  A    between atoms: _216  and  _217
REMARK   92  A    between atoms: _216  and  _219
REMARK   93  A    between atoms: _219  and  _220
REMARK   94  A    between atoms: _223  and  _225
REMARK   95  A    between atoms: _225  and  _226
REMARK   96  A    between atoms: _225  and  _228
REMARK   97  A    between atoms: _228  and  _229
REMARK   98  A    between atoms: _234  and  _236
REMARK   99  A    between atoms: _236  and  _237
REMARK  100  A    between atoms: _236  and  _239
REMARK  101  A    between atoms: _242  and  _244
REMARK  102  A    between atoms: _244  and  _245
REMARK  103  A    between atoms: _244  and  _247
REMARK  104  A    between atoms: _247  and  _248
REMARK  105  A    between atoms: _251  and  _253
REMARK  106  A    between atoms: _253  and  _254
REMARK  107  A    between atoms: _256  and  _258
REMARK  108  A    between atoms: _258  and  _259
REMARK  109  A    between atoms: _258  and  _261
REMARK  110  A    between atoms: _261  and  _262
REMARK  111  A    between atoms: _262  and  _263
REMARK  112  A    between atoms: _263  and  _264
REMARK  113  A    between atoms: _273  and  _275
REMARK  114  A    between atoms: _275  and  _276
REMARK  115  A    between atoms: _275  and  _278
REMARK  116  A    between atoms: _278  and  _279
REMARK  117  A    between atoms: _284  and  _286
REMARK  118  A    between atoms: _286  and  _287
REMARK  119  A    between atoms: _286  and  _289
REMARK  120  A    between atoms: _289  and  _290
REMARK  121  A    between atoms: _290  and  _291
REMARK  122  A    between atoms: _291  and  _292
REMARK  123  A    between atoms: _302  and  _303
REMARK  124  A    between atoms: _308  and  _310
REMARK  125  A    between atoms: _310  and  _311
REMARK  126  A    between atoms: _310  and  _313
REMARK  127  A    between atoms: _313  and  _314
REMARK  128  A    between atoms: _317  and  _319
REMARK  129  A    between atoms: _319  and  _320
REMARK  130  A    between atoms: _319  and  _322
REMARK  131  A    between atoms: _322  and  _323
REMARK  132  A    between atoms: _326  and  _328
REMARK  133  A    between atoms: _328  and  _329
REMARK  134  A    between atoms: _328  and  _331
REMARK  135  A    between atoms: _331  and  _332
REMARK  136  A    between atoms: _335  and  _337
REMARK  137  A    between atoms: _337  and  _338
REMARK  138  A    between atoms: _337  and  _340
REMARK  139  A    between atoms: _340  and  _341
REMARK  140  A    between atoms: _344  and  _346
REMARK  141  A    between atoms: _346  and  _347
REMARK  142  A    between atoms: _346  and  _349
REMARK  143  A    between atoms: _349  and  _350
REMARK  144  A    between atoms: _353  and  _355
REMARK  145  A    between atoms: _355  and  _356
REMARK  146  A    between atoms: _358  and  _360
REMARK  147  A    between atoms: _360  and  _361
REMARK  148  A    between atoms: _364  and  _366
REMARK  149  A    between atoms: _366  and  _367
REMARK  150  A    between atoms: _366  and  _369
REMARK  151  A    between atoms: _369  and  _370
REMARK  152  A    between atoms: _373  and  _375
REMARK  153  A    between atoms: _375  and  _376
REMARK  154  A    between atoms: _375  and  _378
REMARK  155  A    between atoms: _378  and  _379
REMARK  156  A    between atoms: _382  and  _384
REMARK  157  A    between atoms: _384  and  _385
REMARK  158  A    between atoms: _384  and  _387
REMARK  159  A    between atoms: _387  and  _388
REMARK  160  A    between atoms: _391  and  _393
REMARK  161  A    between atoms: _393  and  _394
REMARK  162  A    between atoms: _393  and  _396
REMARK  163  A    between atoms: _399  and  _401
REMARK  164  A    between atoms: _401  and  _402
REMARK  165  A    between atoms: _401  and  _404
REMARK  166  A    between atoms: _404  and  _405
REMARK  167  A    between atoms: _405  and  _406
REMARK  168  A    between atoms: _406  and  _407
REMARK  169  A    between atoms: _407  and  _408
REMARK  170  A    between atoms: _412  and  _414
REMARK  171  A    between atoms: _414  and  _415
REMARK  172  A    between atoms: _414  and  _417
REMARK  173  A    between atoms: _417  and  _418
REMARK  174  A    between atoms: _418  and  _419
REMARK  175  A    between atoms: _421  and  _423
REMARK  176  A    between atoms: _423  and  _424
REMARK  177  A    between atoms: _423  and  _426
REMARK  178  A    between atoms: _426  and  _427
REMARK  179  A    between atoms: _430  and  _432
REMARK  180  A    between atoms: _432  and  _433
REMARK  181  A    between atoms: _435  and  _437
REMARK  182  A    between atoms: _437  and  _438
REMARK  183  A    between atoms: _440  and  _442
REMARK  184  A    between atoms: _442  and  _443
REMARK  185  A    between atoms: _442  and  _445
REMARK  186  A    between atoms: _445  and  _446
REMARK  187  A    between atoms: _449  and  _451
REMARK  188  A    between atoms: _451  and  _452
REMARK  189  A    between atoms: _454  and  _456
REMARK  190  A    between atoms: _456  and  _457
REMARK  191  A    between atoms: _459  and  _461
REMARK  192  A    between atoms: _461  and  _462
REMARK  193  A    between atoms: _461  and  _464
REMARK  194  A    between atoms: _464  and  _465
REMARK  195  A    between atoms: _471  and  _473
REMARK  196  A    between atoms: _473  and  _474
REMARK  197  A    between atoms: _473  and  _476
REMARK  198  A    between atoms: _476  and  _477
REMARK  199  A    between atoms: _480  and  _482
REMARK  200  A    between atoms: _482  and  _483
REMARK  201  A    between atoms: _482  and  _485
REMARK  202  A    between atoms: _488  and  _490
REMARK  203  A    between atoms: _490  and  _491
REMARK  204  A    between atoms: _490  and  _493
REMARK  205  A    between atoms: _493  and  _494
REMARK  206  A    between atoms: _497  and  _499
REMARK  207  A    between atoms: _499  and  _500
REMARK  208  A    between atoms: _499  and  _502
REMARK  209  A    between atoms: _502  and  _503
REMARK  210  A    between atoms: _507  and  _508
REMARK  211  A    between atoms: _513  and  _515
REMARK  212  A    between atoms: _515  and  _516
REMARK  213  A    between atoms: _515  and  _518
REMARK  214  A    between atoms: _518  and  _519
REMARK  215  A    between atoms: _522  and  _524
REMARK  216  A    between atoms: _524  and  _525
REMARK  217  A    between atoms: _524  and  _527
REMARK  218  A    between atoms: _527  and  _528
REMARK  219  A    between atoms: _533  and  _535
REMARK  220  A    between atoms: _535  and  _536
REMARK  221  A    between atoms: _535  and  _538
REMARK  222  A    between atoms: _541  and  _543
REMARK  223  A    between atoms: _543  and  _544
REMARK  224  A    between atoms: _543  and  _546
REMARK  225  A    between atoms: _546  and  _547
REMARK  226  A    between atoms: _550  and  _552
REMARK  227  A    between atoms: _552  and  _553
REMARK  228  A    between atoms: _555  and  _557
REMARK  229  A    between atoms: _557  and  _558
REMARK  230  A    between atoms: _557  and  _560
REMARK  231  A    between atoms: _560  and  _561
REMARK  232  A    between atoms: _561  and  _562
REMARK  233  A    between atoms: _562  and  _563
REMARK                            x       y       z     vdW  Elec       q    Type
REMARK                         _______ _______ _______ _____ _____    ______ ____
ROOT
ATOM      1  O   HOH     1       4.174  29.218   7.582  0.00  0.00    +0.000 OA
ENDROOT
TORSDOF 0
REMARK  Name = ../refined-set-2016/2xye/2xye_pocket.pdb
REMARK  233 active torsions:
REMARK  status: ('A' for Active; 'I' for Inactive)
REMARK    1  A    between atoms: _1  and  _3
REMARK    2  A    between atoms: _3  and  _4
REMARK    3  A    between atoms: _3  and  _6
REMARK    4  A    between atoms: _6  and  _7
REMARK    5  A    between atoms: _7  and  _8
REMARK    6  A    between atoms: _8  and  _9
REMARK    7  A    between atoms: _18  and  _20
REMARK    8  A    between atoms: _20  and  _21
REMARK    9  A    between atoms: _20  and  _23
REMARK   10  A    between atoms: _23  and  _24
REMARK   11  A    between atoms: _27  and  _29
REMARK   12  A    between atoms: _29  and  _30
REMARK   13  A    between atoms: _29  and  _32
REMARK   14  A    between atoms: _32  and  _33
REMARK   15  A    between atoms: _36  and  _38
REMARK   16  A    between atoms: _38  and  _39
REMARK   17  A    between atoms: _38  and  _41
REMARK   18  A    between atoms: _41  and  _42
REMARK   19  A    between atoms: _45  and  _47
REMARK   20  A    between atoms: _47  and  _48
REMARK   21  A    between atoms: _47  and  _50
REMARK   22  A    between atoms: _50  and  _51
REMARK   23  A    between atoms: _54  and  _56
REMARK   24  A    between atoms: _56  and  _57
REMARK   25  A    between atoms: _59  and  _61
REMARK   26  A    between atoms: _61  and  _62
REMARK   27  A    between atoms: _65  and  _67
REMARK   28  A    between atoms: _67  and  _68
REMARK   29  A    between atoms: _67  and  _70
REMARK   30  A    between atoms: _70  and  _71
REMARK   31  A    between atoms: _74  and  _76
REMARK   32  A    between atoms: _76  and  _77
REMARK   33  A    between atoms: _76  and  _79
REMARK   34  A    between atoms: _79  and  _80
REMARK   35  A    between atoms: _83  and  _85
REMARK   36  A    between atoms: _85  and  _86
REMARK   37  A    between atoms: _85  and  _88
REMARK   38  A    between atoms: _88  and  _89
REMARK   39  A    between atoms: _92  and  _94
REMARK   40  A    between atoms: _94  and  _95
REMARK   41  A    between atoms: _94  and  _97
REMARK   42  A    between atoms: _100  and  _102
REMARK   43  A    between atoms: _102  and  _103
REMARK   44  A    between atoms: _102  and  _105
REMARK   45  A    between atoms: _105  and  _106
REMARK   46  A    between atoms: _106  and  _107
REMARK   47  A    between atoms: _107  and  _108
REMARK   48  A    between atoms: _108  and  _109
REMARK   49  A    between atoms: _113  and  _115
REMARK   50  A    between atoms: _115  and  _116
REMARK   51  A    between atoms: _115  and  _118
REMARK   52  A    between atoms: _118  and  _119
REMARK   53  A    between atoms: _119  and  _120
REMARK   54  A    between atoms: _122  and  _124
REMARK   55  A    between atoms: _124  and  _125
REMARK   56  A    between atoms: _124  and  _127
REMARK   57  A    between atoms: _127  and  _128
REMARK   58  A    between atoms: _131  and  _133
REMARK   59  A    between atoms: _133  and  _134
REMARK   60  A    between atoms: _136  and  _138
REMARK   61  A    between atoms: _138  and  _139
REMARK   62  A    between atoms: _141  and  _143
REMARK   63  A    between atoms: _143  and  _144
REMARK   64  A    between atoms: _143  and  _146
REMARK   65  A    between atoms: _146  and  _147
REMARK   66  A    between atoms: _150  and  _152
REMARK   67  A    between atoms: _152  and  _153
REMARK   68  A    between atoms: _155  and  _157
REMARK   69  A    between atoms: _157  and  _158
REMARK   70  A    between atoms: _160  and  _162
REMARK   71  A    between atoms: _162  and  _163
REMARK   72  A    between atoms: _162  and  _165
REMARK   73  A    between atoms: _165  and  _166
REMARK   74  A    between atoms: _172  and  _174
REMARK   75  A    between atoms: _174  and  _175
REMARK   76  A    between atoms: _174  and  _177
REMARK   77  A    between atoms: _177  and  _178
REMARK   78  A    between atoms: _181  and  _183
REMARK   79  A    between atoms: _183  and  _184
REMARK   80  A    between atoms: _183  and  _186
REMARK   81  A    between atoms: _189  and  _191
REMARK   82  A    between atoms: _191  and  _192
REMARK   83  A    between atoms: _191  and  _194
REMARK   84  A    between atoms: _194  and  _195
REMARK   85  A    between atoms: _198  and  _200
REMARK   86  A    between atoms: _200  and  _201
REMARK   87  A    between atoms: _200  and  _203
REMARK   88  A    between atoms: _203  and  _204
REMARK   89  A    between atoms: _208  and  _209
REMARK   90  A    between atoms: _214  and  _216
REMARK   91  A    between atoms: _216  and  _217
REMARK   92  A    between atoms: _216  and  _219
REMARK   93  A    between atoms: _219  and  _220
REMARK   94  A    between atoms: _223  and  _225
REMARK   95  A    between atoms: _225  and  _226
REMARK   96  A    between atoms: _225  and  _228
REMARK   97  A    between atoms: _228  and  _229
REMARK   98  A    between atoms: _234  and  _236
REMARK   99  A    between atoms: _236  and  _237
REMARK  100  A    between atoms: _236  and  _239
REMARK  101  A    between atoms: _242  and  _244
REMARK  102  A    between atoms: _244  and  _245
REMARK  103  A    between atoms: _244  and  _247
REMARK  104  A    between atoms: _247  and  _248
REMARK  105  A    between atoms: _251  and  _253
REMARK  106  A    between atoms: _253  and  _254
REMARK  107  A    between atoms: _256  and  _258
REMARK  108  A    between atoms: _258  and  _259
REMARK  109  A    between atoms: _258  and  _261
REMARK  110  A    between atoms: _261  and  _262
REMARK  111  A    between atoms: _262  and  _263
REMARK  112  A    between atoms: _263  and  _264
REMARK  113  A    between atoms: _273  and  _275
REMARK  114  A    between atoms: _275  and  _276
REMARK  115  A    between atoms: _275  and  _278
REMARK  116  A    between atoms: _278  and  _279
REMARK  117  A    between atoms: _284  and  _286
REMARK  118  A    between atoms: _286  and  _287
REMARK  119  A    between atoms: _286  and  _289
REMARK  120  A    between atoms: _289  and  _290
REMARK  121  A    between atoms: _290  and  _291
REMARK  122  A    between atoms: _291  and  _292
REMARK  123  A    between atoms: _302  and  _303
REMARK  124  A    between atoms: _308  and  _310
REMARK  125  A    between atoms: _310  and  _311
REMARK  126  A    between atoms: _310  and  _313
REMARK  127  A    between atoms: _313  and  _314
REMARK  128  A    between atoms: _317  and  _319
REMARK  129  A    between atoms: _319  and  _320
REMARK  130  A    between atoms: _319  and  _322
REMARK  131  A    between atoms: _322  and  _323
REMARK  132  A    between atoms: _326  and  _328
REMARK  133  A    between atoms: _328  and  _329
REMARK  134  A    between atoms: _328  and  _331
REMARK  135  A    between atoms: _331  and  _332
REMARK  136  A    between atoms: _335  and  _337
REMARK  137  A    between atoms: _337  and  _338
REMARK  138  A    between atoms: _337  and  _340
REMARK  139  A    between atoms: _340  and  _341
REMARK  140  A    between atoms: _344  and  _346
REMARK  141  A    between atoms: _346  and  _347
REMARK  142  A    between atoms: _346  and  _349
REMARK  143  A    between atoms: _349  and  _350
REMARK  144  A    between atoms: _353  and  _355
REMARK  145  A    between atoms: _355  and  _356
REMARK  146  A    between atoms: _358  and  _360
REMARK  147  A    between atoms: _360  and  _361
REMARK  148  A    between atoms: _364  and  _366
REMARK  149  A    between atoms: _366  and  _367
REMARK  150  A    between atoms: _366  and  _369
REMARK  151  A    between atoms: _369  and  _370
REMARK  152  A    between atoms: _373  and  _375
REMARK  153  A    between atoms: _375  and  _376
REMARK  154  A    between atoms: _375  and  _378
REMARK  155  A    between atoms: _378  and  _379
REMARK  156  A    between atoms: _382  and  _384
REMARK  157  A    between atoms: _384  and  _385
REMARK  158  A    between atoms: _384  and  _387
REMARK  159  A    between atoms: _387  and  _388
REMARK  160  A    between atoms: _391  and  _393
REMARK  161  A    between atoms: _393  and  _394
REMARK  162  A    between atoms: _393  and  _396
REMARK  163  A    between atoms: _399  and  _401
REMARK  164  A    between atoms: _401  and  _402
REMARK  165  A    between atoms: _401  and  _404
REMARK  166  A    between atoms: _404  and  _405
REMARK  167  A    between atoms: _405  and  _406
REMARK  168  A    between atoms: _406  and  _407
REMARK  169  A    between atoms: _407  and  _408
REMARK  170  A    between atoms: _412  and  _414
REMARK  171  A    between atoms: _414  and  _415
REMARK  172  A    between atoms: _414  and  _417
REMARK  173  A    between atoms: _417  and  _418
REMARK  174  A    between atoms: _418  and  _419
REMARK  175  A    between atoms: _421  and  _423
REMARK  176  A    between atoms: _423  and  _424
REMARK  177  A    between atoms: _423  and  _426
REMARK  178  A    between atoms: _426  and  _427
REMARK  179  A    between atoms: _430  and  _432
REMARK  180  A    between atoms: _432  and  _433
REMARK  181  A    between atoms: _435  and  _437
REMARK  182  A    between atoms: _437  and  _438
REMARK  183  A    between atoms: _440  and  _442
REMARK  184  A    between atoms: _442  and  _443
REMARK  185  A    between atoms: _442  and  _445
REMARK  186  A    between atoms: _445  and  _446
REMARK  187  A    between atoms: _449  and  _451
REMARK  188  A    between atoms: _451  and  _452
REMARK  189  A    between atoms: _454  and  _456
REMARK  190  A    between atoms: _456  and  _457
REMARK  191  A    between atoms: _459  and  _461
REMARK  192  A    between atoms: _461  and  _462
REMARK  193  A    between atoms: _461  and  _464
REMARK  194  A    between atoms: _464  and  _465
REMARK  195  A    between atoms: _471  and  _473
REMARK  196  A    between atoms: _473  and  _474
REMARK  197  A    between atoms: _473  and  _476
REMARK  198  A    between atoms: _476  and  _477
REMARK  199  A    between atoms: _480  and  _482
REMARK  200  A    between atoms: _482  and  _483
REMARK  201  A    between atoms: _482  and  _485
REMARK  202  A    between atoms: _488  and  _490
REMARK  203  A    between atoms: _490  and  _491
REMARK  204  A    between atoms: _490  and  _493
REMARK  205  A    between atoms: _493  and  _494
REMARK  206  A    between atoms: _497  and  _499
REMARK  207  A    between atoms: _499  and  _500
REMARK  208  A    between atoms: _499  and  _502
REMARK  209  A    between atoms: _502  and  _503
REMARK  210  A    between atoms: _507  and  _508
REMARK  211  A    between atoms: _513  and  _515
REMARK  212  A    between atoms: _515  and  _516
REMARK  213  A    between atoms: _515  and  _518
REMARK  214  A    between atoms: _518  and  _519
REMARK  215  A    between atoms: _522  and  _524
REMARK  216  A    between atoms: _524  and  _525
REMARK  217  A    between atoms: _524  and  _527
REMARK  218  A    between atoms: _527  and  _528
REMARK  219  A    between atoms: _533  and  _535
REMARK  220  A    between atoms: _535  and  _536
REMARK  221  A    between atoms: _535  and  _538
REMARK  222  A    between atoms: _541  and  _543
REMARK  223  A    between atoms: _543  and  _544
REMARK  224  A    between atoms: _543  and  _546
REMARK  225  A    between atoms: _546  and  _547
REMARK  226  A    between atoms: _550  and  _552
REMARK  227  A    between atoms: _552  and  _553
REMARK  228  A    between atoms: _555  and  _557
REMARK  229  A    between atoms: _557  and  _558
REMARK  230  A    between atoms: _557  and  _560
REMARK  231  A    between atoms: _560  and  _561
REMARK  232  A    between atoms: _561  and  _562
REMARK  233  A    between atoms: _562  and  _563
REMARK                            x       y       z     vdW  Elec       q    Type
REMARK                         _______ _______ _______ _____ _____    ______ ____
ROOT
ATOM      1  O   HOH     1       3.697  26.111   7.275  0.00  0.00    +0.000 OA
ENDROOT
TORSDOF 0
REMARK  Name = ../refined-set-2016/2xye/2xye_pocket.pdb
REMARK  233 active torsions:
REMARK  status: ('A' for Active; 'I' for Inactive)
REMARK    1  A    between atoms: _1  and  _3
REMARK    2  A    between atoms: _3  and  _4
REMARK    3  A    between atoms: _3  and  _6
REMARK    4  A    between atoms: _6  and  _7
REMARK    5  A    between atoms: _7  and  _8
REMARK    6  A    between atoms: _8  and  _9
REMARK    7  A    between atoms: _18  and  _20
REMARK    8  A    between atoms: _20  and  _21
REMARK    9  A    between atoms: _20  and  _23
REMARK   10  A    between atoms: _23  and  _24
REMARK   11  A    between atoms: _27  and  _29
REMARK   12  A    between atoms: _29  and  _30
REMARK   13  A    between atoms: _29  and  _32
REMARK   14  A    between atoms: _32  and  _33
REMARK   15  A    between atoms: _36  and  _38
REMARK   16  A    between atoms: _38  and  _39
REMARK   17  A    between atoms: _38  and  _41
REMARK   18  A    between atoms: _41  and  _42
REMARK   19  A    between atoms: _45  and  _47
REMARK   20  A    between atoms: _47  and  _48
REMARK   21  A    between atoms: _47  and  _50
REMARK   22  A    between atoms: _50  and  _51
REMARK   23  A    between atoms: _54  and  _56
REMARK   24  A    between atoms: _56  and  _57
REMARK   25  A    between atoms: _59  and  _61
REMARK   26  A    between atoms: _61  and  _62
REMARK   27  A    between atoms: _65  and  _67
REMARK   28  A    between atoms: _67  and  _68
REMARK   29  A    between atoms: _67  and  _70
REMARK   30  A    between atoms: _70  and  _71
REMARK   31  A    between atoms: _74  and  _76
REMARK   32  A    between atoms: _76  and  _77
REMARK   33  A    between atoms: _76  and  _79
REMARK   34  A    between atoms: _79  and  _80
REMARK   35  A    between atoms: _83  and  _85
REMARK   36  A    between atoms: _85  and  _86
REMARK   37  A    between atoms: _85  and  _88
REMARK   38  A    between atoms: _88  and  _89
REMARK   39  A    between atoms: _92  and  _94
REMARK   40  A    between atoms: _94  and  _95
REMARK   41  A    between atoms: _94  and  _97
REMARK   42  A    between atoms: _100  and  _102
REMARK   43  A    between atoms: _102  and  _103
REMARK   44  A    between atoms: _102  and  _105
REMARK   45  A    between atoms: _105  and  _106
REMARK   46  A    between atoms: _106  and  _107
REMARK   47  A    between atoms: _107  and  _108
REMARK   48  A    between atoms: _108  and  _109
REMARK   49  A    between atoms: _113  and  _115
REMARK   50  A    between atoms: _115  and  _116
REMARK   51  A    between atoms: _115  and  _118
REMARK   52  A    between atoms: _118  and  _119
REMARK   53  A    between atoms: _119  and  _120
REMARK   54  A    between atoms: _122  and  _124
REMARK   55  A    between atoms: _124  and  _125
REMARK   56  A    between atoms: _124  and  _127
REMARK   57  A    between atoms: _127  and  _128
REMARK   58  A    between atoms: _131  and  _133
REMARK   59  A    between atoms: _133  and  _134
REMARK   60  A    between atoms: _136  and  _138
REMARK   61  A    between atoms: _138  and  _139
REMARK   62  A    between atoms: _141  and  _143
REMARK   63  A    between atoms: _143  and  _144
REMARK   64  A    between atoms: _143  and  _146
REMARK   65  A    between atoms: _146  and  _147
REMARK   66  A    between atoms: _150  and  _152
REMARK   67  A    between atoms: _152  and  _153
REMARK   68  A    between atoms: _155  and  _157
REMARK   69  A    between atoms: _157  and  _158
REMARK   70  A    between atoms: _160  and  _162
REMARK   71  A    between atoms: _162  and  _163
REMARK   72  A    between atoms: _162  and  _165
REMARK   73  A    between atoms: _165  and  _166
REMARK   74  A    between atoms: _172  and  _174
REMARK   75  A    between atoms: _174  and  _175
REMARK   76  A    between atoms: _174  and  _177
REMARK   77  A    between atoms: _177  and  _178
REMARK   78  A    between atoms: _181  and  _183
REMARK   79  A    between atoms: _183  and  _184
REMARK   80  A    between atoms: _183  and  _186
REMARK   81  A    between atoms: _189  and  _191
REMARK   82  A    between atoms: _191  and  _192
REMARK   83  A    between atoms: _191  and  _194
REMARK   84  A    between atoms: _194  and  _195
REMARK   85  A    between atoms: _198  and  _200
REMARK   86  A    between atoms: _200  and  _201
REMARK   87  A    between atoms: _200  and  _203
REMARK   88  A    between atoms: _203  and  _204
REMARK   89  A    between atoms: _208  and  _209
REMARK   90  A    between atoms: _214  and  _216
REMARK   91  A    between atoms: _216  and  _217
REMARK   92  A    between atoms: _216  and  _219
REMARK   93  A    between atoms: _219  and  _220
REMARK   94  A    between atoms: _223  and  _225
REMARK   95  A    between atoms: _225  and  _226
REMARK   96  A    between atoms: _225  and  _228
REMARK   97  A    between atoms: _228  and  _229
REMARK   98  A    between atoms: _234  and  _236
REMARK   99  A    between atoms: _236  and  _237
REMARK  100  A    between atoms: _236  and  _239
REMARK  101  A    between atoms: _242  and  _244
REMARK  102  A    between atoms: _244  and  _245
REMARK  103  A    between atoms: _244  and  _247
REMARK  104  A    between atoms: _247  and  _248
REMARK  105  A    between atoms: _251  and  _253
REMARK  106  A    between atoms: _253  and  _254
REMARK  107  A    between atoms: _256  and  _258
REMARK  108  A    between atoms: _258  and  _259
REMARK  109  A    between atoms: _258  and  _261
REMARK  110  A    between atoms: _261  and  _262
REMARK  111  A    between atoms: _262  and  _263
REMARK  112  A    between atoms: _263  and  _264
REMARK  113  A    between atoms: _273  and  _275
REMARK  114  A    between atoms: _275  and  _276
REMARK  115  A    between atoms: _275  and  _278
REMARK  116  A    between atoms: _278  and  _279
REMARK  117  A    between atoms: _284  and  _286
REMARK  118  A    between atoms: _286  and  _287
REMARK  119  A    between atoms: _286  and  _289
REMARK  120  A    between atoms: _289  and  _290
REMARK  121  A    between atoms: _290  and  _291
REMARK  122  A    between atoms: _291  and  _292
REMARK  123  A    between atoms: _302  and  _303
REMARK  124  A    between atoms: _308  and  _310
REMARK  125  A    between atoms: _310  and  _311
REMARK  126  A    between atoms: _310  and  _313
REMARK  127  A    between atoms: _313  and  _314
REMARK  128  A    between atoms: _317  and  _319
REMARK  129  A    between atoms: _319  and  _320
REMARK  130  A    between atoms: _319  and  _322
REMARK  131  A    between atoms: _322  and  _323
REMARK  132  A    between atoms: _326  and  _328
REMARK  133  A    between atoms: _328  and  _329
REMARK  134  A    between atoms: _328  and  _331
REMARK  135  A    between atoms: _331  and  _332
REMARK  136  A    between atoms: _335  and  _337
REMARK  137  A    between atoms: _337  and  _338
REMARK  138  A    between atoms: _337  and  _340
REMARK  139  A    between atoms: _340  and  _341
REMARK  140  A    between atoms: _344  and  _346
REMARK  141  A    between atoms: _346  and  _347
REMARK  142  A    between atoms: _346  and  _349
REMARK  143  A    between atoms: _349  and  _350
REMARK  144  A    between atoms: _353  and  _355
REMARK  145  A    between atoms: _355  and  _356
REMARK  146  A    between atoms: _358  and  _360
REMARK  147  A    between atoms: _360  and  _361
REMARK  148  A    between atoms: _364  and  _366
REMARK  149  A    between atoms: _366  and  _367
REMARK  150  A    between atoms: _366  and  _369
REMARK  151  A    between atoms: _369  and  _370
REMARK  152  A    between atoms: _373  and  _375
REMARK  153  A    between atoms: _375  and  _376
REMARK  154  A    between atoms: _375  and  _378
REMARK  155  A    between atoms: _378  and  _379
REMARK  156  A    between atoms: _382  and  _384
REMARK  157  A    between atoms: _384  and  _385
REMARK  158  A    between atoms: _384  and  _387
REMARK  159  A    between atoms: _387  and  _388
REMARK  160  A    between atoms: _391  and  _393
REMARK  161  A    between atoms: _393  and  _394
REMARK  162  A    between atoms: _393  and  _396
REMARK  163  A    between atoms: _399  and  _401
REMARK  164  A    between atoms: _401  and  _402
REMARK  165  A    between atoms: _401  and  _404
REMARK  166  A    between atoms: _404  and  _405
REMARK  167  A    between atoms: _405  and  _406
REMARK  168  A    between atoms: _406  and  _407
REMARK  169  A    between atoms: _407  and  _408
REMARK  170  A    between atoms: _412  and  _414
REMARK  171  A    between atoms: _414  and  _415
REMARK  172  A    between atoms: _414  and  _417
REMARK  173  A    between atoms: _417  and  _418
REMARK  174  A    between atoms: _418  and  _419
REMARK  175  A    between atoms: _421  and  _423
REMARK  176  A    between atoms: _423  and  _424
REMARK  177  A    between atoms: _423  and  _426
REMARK  178  A    between atoms: _426  and  _427
REMARK  179  A    between atoms: _430  and  _432
REMARK  180  A    between atoms: _432  and  _433
REMARK  181  A    between atoms: _435  and  _437
REMARK  182  A    between atoms: _437  and  _438
REMARK  183  A    between atoms: _440  and  _442
REMARK  184  A    between atoms: _442  and  _443
REMARK  185  A    between atoms: _442  and  _445
REMARK  186  A    between atoms: _445  and  _446
REMARK  187  A    between atoms: _449  and  _451
REMARK  188  A    between atoms: _451  and  _452
REMARK  189  A    between atoms: _454  and  _456
REMARK  190  A    between atoms: _456  and  _457
REMARK  191  A    between atoms: _459  and  _461
REMARK  192  A    between atoms: _461  and  _462
REMARK  193  A    between atoms: _461  and  _464
REMARK  194  A    between atoms: _464  and  _465
REMARK  195  A    between atoms: _471  and  _473
REMARK  196  A    between atoms: _473  and  _474
REMARK  197  A    between atoms: _473  and  _476
REMARK  198  A    between atoms: _476  and  _477
REMARK  199  A    between atoms: _480  and  _482
REMARK  200  A    between atoms: _482  and  _483
REMARK  201  A    between atoms: _482  and  _485
REMARK  202  A    between atoms: _488  and  _490
REMARK  203  A    between atoms: _490  and  _491
REMARK  204  A    between atoms: _490  and  _493
REMARK  205  A    between atoms: _493  and  _494
REMARK  206  A    between atoms: _497  and  _499
REMARK  207  A    between atoms: _499  and  _500
REMARK  208  A    between atoms: _499  and  _502
REMARK  209  A    between atoms: _502  and  _503
REMARK  210  A    between atoms: _507  and  _508
REMARK  211  A    between atoms: _513  and  _515
REMARK  212  A    between atoms: _515  and  _516
REMARK  213  A    between atoms: _515  and  _518
REMARK  214  A    between atoms: _518  and  _519
REMARK  215  A    between atoms: _522  and  _524
REMARK  216  A    between atoms: _524  and  _525
REMARK  217  A    between atoms: _524  and  _527
REMARK  218  A    between atoms: _527  and  _528
REMARK  219  A    between atoms: _533  and  _535
REMARK  220  A    between atoms: _535  and  _536
REMARK  221  A    between atoms: _535  and  _538
REMARK  222  A    between atoms: _541  and  _543
REMARK  223  A    between atoms: _543  and  _544
REMARK  224  A    between atoms: _543  and  _546
REMARK  225  A    between atoms: _546  and  _547
REMARK  226  A    between atoms: _550  and  _552
REMARK  227  A    between atoms: _552  and  _553
REMARK  228  A    between atoms: _555  and  _557
REMARK  229  A    between atoms: _557  and  _558
REMARK  230  A    between atoms: _557  and  _560
REMARK  231  A    between atoms: _560  and  _561
REMARK  232  A    between atoms: _561  and  _562
REMARK  233  A    between atoms: _562  and  _563
REMARK                            x       y       z     vdW  Elec       q    Type
REMARK                         _______ _______ _______ _____ _____    ______ ____
ROOT
ATOM      1  O   HOH     1       8.569  33.439  12.408  0.00  0.00    +0.000 OA
ENDROOT
TORSDOF 0
REMARK  Name = ../refined-set-2016/2xye/2xye_pocket.pdb
REMARK  233 active torsions:
REMARK  status: ('A' for Active; 'I' for Inactive)
REMARK    1  A    between atoms: _1  and  _3
REMARK    2  A    between atoms: _3  and  _4
REMARK    3  A    between atoms: _3  and  _6
REMARK    4  A    between atoms: _6  and  _7
REMARK    5  A    between atoms: _7  and  _8
REMARK    6  A    between atoms: _8  and  _9
REMARK    7  A    between atoms: _18  and  _20
REMARK    8  A    between atoms: _20  and  _21
REMARK    9  A    between atoms: _20  and  _23
REMARK   10  A    between atoms: _23  and  _24
REMARK   11  A    between atoms: _27  and  _29
REMARK   12  A    between atoms: _29  and  _30
REMARK   13  A    between atoms: _29  and  _32
REMARK   14  A    between atoms: _32  and  _33
REMARK   15  A    between atoms: _36  and  _38
REMARK   16  A    between atoms: _38  and  _39
REMARK   17  A    between atoms: _38  and  _41
REMARK   18  A    between atoms: _41  and  _42
REMARK   19  A    between atoms: _45  and  _47
REMARK   20  A    between atoms: _47  and  _48
REMARK   21  A    between atoms: _47  and  _50
REMARK   22  A    between atoms: _50  and  _51
REMARK   23  A    between atoms: _54  and  _56
REMARK   24  A    between atoms: _56  and  _57
REMARK   25  A    between atoms: _59  and  _61
REMARK   26  A    between atoms: _61  and  _62
REMARK   27  A    between atoms: _65  and  _67
REMARK   28  A    between atoms: _67  and  _68
REMARK   29  A    between atoms: _67  and  _70
REMARK   30  A    between atoms: _70  and  _71
REMARK   31  A    between atoms: _74  and  _76
REMARK   32  A    between atoms: _76  and  _77
REMARK   33  A    between atoms: _76  and  _79
REMARK   34  A    between atoms: _79  and  _80
REMARK   35  A    between atoms: _83  and  _85
REMARK   36  A    between atoms: _85  and  _86
REMARK   37  A    between atoms: _85  and  _88
REMARK   38  A    between atoms: _88  and  _89
REMARK   39  A    between atoms: _92  and  _94
REMARK   40  A    between atoms: _94  and  _95
REMARK   41  A    between atoms: _94  and  _97
REMARK   42  A    between atoms: _100  and  _102
REMARK   43  A    between atoms: _102  and  _103
REMARK   44  A    between atoms: _102  and  _105
REMARK   45  A    between atoms: _105  and  _106
REMARK   46  A    between atoms: _106  and  _107
REMARK   47  A    between atoms: _107  and  _108
REMARK   48  A    between atoms: _108  and  _109
REMARK   49  A    between atoms: _113  and  _115
REMARK   50  A    between atoms: _115  and  _116
REMARK   51  A    between atoms: _115  and  _118
REMARK   52  A    between atoms: _118  and  _119
REMARK   53  A    between atoms: _119  and  _120
REMARK   54  A    between atoms: _122  and  _124
REMARK   55  A    between atoms: _124  and  _125
REMARK   56  A    between atoms: _124  and  _127
REMARK   57  A    between atoms: _127  and  _128
REMARK   58  A    between atoms: _131  and  _133
REMARK   59  A    between atoms: _133  and  _134
REMARK   60  A    between atoms: _136  and  _138
REMARK   61  A    between atoms: _138  and  _139
REMARK   62  A    between atoms: _141  and  _143
REMARK   63  A    between atoms: _143  and  _144
REMARK   64  A    between atoms: _143  and  _146
REMARK   65  A    between atoms: _146  and  _147
REMARK   66  A    between atoms: _150  and  _152
REMARK   67  A    between atoms: _152  and  _153
REMARK   68  A    between atoms: _155  and  _157
REMARK   69  A    between atoms: _157  and  _158
REMARK   70  A    between atoms: _160  and  _162
REMARK   71  A    between atoms: _162  and  _163
REMARK   72  A    between atoms: _162  and  _165
REMARK   73  A    between atoms: _165  and  _166
REMARK   74  A    between atoms: _172  and  _174
REMARK   75  A    between atoms: _174  and  _175
REMARK   76  A    between atoms: _174  and  _177
REMARK   77  A    between atoms: _177  and  _178
REMARK   78  A    between atoms: _181  and  _183
REMARK   79  A    between atoms: _183  and  _184
REMARK   80  A    between atoms: _183  and  _186
REMARK   81  A    between atoms: _189  and  _191
REMARK   82  A    between atoms: _191  and  _192
REMARK   83  A    between atoms: _191  and  _194
REMARK   84  A    between atoms: _194  and  _195
REMARK   85  A    between atoms: _198  and  _200
REMARK   86  A    between atoms: _200  and  _201
REMARK   87  A    between atoms: _200  and  _203
REMARK   88  A    between atoms: _203  and  _204
REMARK   89  A    between atoms: _208  and  _209
REMARK   90  A    between atoms: _214  and  _216
REMARK   91  A    between atoms: _216  and  _217
REMARK   92  A    between atoms: _216  and  _219
REMARK   93  A    between atoms: _219  and  _220
REMARK   94  A    between atoms: _223  and  _225
REMARK   95  A    between atoms: _225  and  _226
REMARK   96  A    between atoms: _225  and  _228
REMARK   97  A    between atoms: _228  and  _229
REMARK   98  A    between atoms: _234  and  _236
REMARK   99  A    between atoms: _236  and  _237
REMARK  100  A    between atoms: _236  and  _239
REMARK  101  A    between atoms: _242  and  _244
REMARK  102  A    between atoms: _244  and  _245
REMARK  103  A    between atoms: _244  and  _247
REMARK  104  A    between atoms: _247  and  _248
REMARK  105  A    between atoms: _251  and  _253
REMARK  106  A    between atoms: _253  and  _254
REMARK  107  A    between atoms: _256  and  _258
REMARK  108  A    between atoms: _258  and  _259
REMARK  109  A    between atoms: _258  and  _261
REMARK  110  A    between atoms: _261  and  _262
REMARK  111  A    between atoms: _262  and  _263
REMARK  112  A    between atoms: _263  and  _264
REMARK  113  A    between atoms: _273  and  _275
REMARK  114  A    between atoms: _275  and  _276
REMARK  115  A    between atoms: _275  and  _278
REMARK  116  A    between atoms: _278  and  _279
REMARK  117  A    between atoms: _284  and  _286
REMARK  118  A    between atoms: _286  and  _287
REMARK  119  A    between atoms: _286  and  _289
REMARK  120  A    between atoms: _289  and  _290
REMARK  121  A    between atoms: _290  and  _291
REMARK  122  A    between atoms: _291  and  _292
REMARK  123  A    between atoms: _302  and  _303
REMARK  124  A    between atoms: _308  and  _310
REMARK  125  A    between atoms: _310  and  _311
REMARK  126  A    between atoms: _310  and  _313
REMARK  127  A    between atoms: _313  and  _314
REMARK  128  A    between atoms: _317  and  _319
REMARK  129  A    between atoms: _319  and  _320
REMARK  130  A    between atoms: _319  and  _322
REMARK  131  A    between atoms: _322  and  _323
REMARK  132  A    between atoms: _326  and  _328
REMARK  133  A    between atoms: _328  and  _329
REMARK  134  A    between atoms: _328  and  _331
REMARK  135  A    between atoms: _331  and  _332
REMARK  136  A    between atoms: _335  and  _337
REMARK  137  A    between atoms: _337  and  _338
REMARK  138  A    between atoms: _337  and  _340
REMARK  139  A    between atoms: _340  and  _341
REMARK  140  A    between atoms: _344  and  _346
REMARK  141  A    between atoms: _346  and  _347
REMARK  142  A    between atoms: _346  and  _349
REMARK  143  A    between atoms: _349  and  _350
REMARK  144  A    between atoms: _353  and  _355
REMARK  145  A    between atoms: _355  and  _356
REMARK  146  A    between atoms: _358  and  _360
REMARK  147  A    between atoms: _360  and  _361
REMARK  148  A    between atoms: _364  and  _366
REMARK  149  A    between atoms: _366  and  _367
REMARK  150  A    between atoms: _366  and  _369
REMARK  151  A    between atoms: _369  and  _370
REMARK  152  A    between atoms: _373  and  _375
REMARK  153  A    between atoms: _375  and  _376
REMARK  154  A    between atoms: _375  and  _378
REMARK  155  A    between atoms: _378  and  _379
REMARK  156  A    between atoms: _382  and  _384
REMARK  157  A    between atoms: _384  and  _385
REMARK  158  A    between atoms: _384  and  _387
REMARK  159  A    between atoms: _387  and  _388
REMARK  160  A    between atoms: _391  and  _393
REMARK  161  A    between atoms: _393  and  _394
REMARK  162  A    between atoms: _393  and  _396
REMARK  163  A    between atoms: _399  and  _401
REMARK  164  A    between atoms: _401  and  _402
REMARK  165  A    between atoms: _401  and  _404
REMARK  166  A    between atoms: _404  and  _405
REMARK  167  A    between atoms: _405  and  _406
REMARK  168  A    between atoms: _406  and  _407
REMARK  169  A    between atoms: _407  and  _408
REMARK  170  A    between atoms: _412  and  _414
REMARK  171  A    between atoms: _414  and  _415
REMARK  172  A    between atoms: _414  and  _417
REMARK  173  A    between atoms: _417  and  _418
REMARK  174  A    between atoms: _418  and  _419
REMARK  175  A    between atoms: _421  and  _423
REMARK  176  A    between atoms: _423  and  _424
REMARK  177  A    between atoms: _423  and  _426
REMARK  178  A    between atoms: _426  and  _427
REMARK  179  A    between atoms: _430  and  _432
REMARK  180  A    between atoms: _432  and  _433
REMARK  181  A    between atoms: _435  and  _437
REMARK  182  A    between atoms: _437  and  _438
REMARK  183  A    between atoms: _440  and  _442
REMARK  184  A    between atoms: _442  and  _443
REMARK  185  A    between atoms: _442  and  _445
REMARK  186  A    between atoms: _445  and  _446
REMARK  187  A    between atoms: _449  and  _451
REMARK  188  A    between atoms: _451  and  _452
REMARK  189  A    between atoms: _454  and  _456
REMARK  190  A    between atoms: _456  and  _457
REMARK  191  A    between atoms: _459  and  _461
REMARK  192  A    between atoms: _461  and  _462
REMARK  193  A    between atoms: _461  and  _464
REMARK  194  A    between atoms: _464  and  _465
REMARK  195  A    between atoms: _471  and  _473
REMARK  196  A    between atoms: _473  and  _474
REMARK  197  A    between atoms: _473  and  _476
REMARK  198  A    between atoms: _476  and  _477
REMARK  199  A    between atoms: _480  and  _482
REMARK  200  A    between atoms: _482  and  _483
REMARK  201  A    between atoms: _482  and  _485
REMARK  202  A    between atoms: _488  and  _490
REMARK  203  A    between atoms: _490  and  _491
REMARK  204  A    between atoms: _490  and  _493
REMARK  205  A    between atoms: _493  and  _494
REMARK  206  A    between atoms: _497  and  _499
REMARK  207  A    between atoms: _499  and  _500
REMARK  208  A    between atoms: _499  and  _502
REMARK  209  A    between atoms: _502  and  _503
REMARK  210  A    between atoms: _507  and  _508
REMARK  211  A    between atoms: _513  and  _515
REMARK  212  A    between atoms: _515  and  _516
REMARK  213  A    between atoms: _515  and  _518
REMARK  214  A    between atoms: _518  and  _519
REMARK  215  A    between atoms: _522  and  _524
REMARK  216  A    between atoms: _524  and  _525
REMARK  217  A    between atoms: _524  and  _527
REMARK  218  A    between atoms: _527  and  _528
REMARK  219  A    between atoms: _533  and  _535
REMARK  220  A    between atoms: _535  and  _536
REMARK  221  A    between atoms: _535  and  _538
REMARK  222  A    between atoms: _541  and  _543
REMARK  223  A    between atoms: _543  and  _544
REMARK  224  A    between atoms: _543  and  _546
REMARK  225  A    between atoms: _546  and  _547
REMARK  226  A    between atoms: _550  and  _552
REMARK  227  A    between atoms: _552  and  _553
REMARK  228  A    between atoms: _555  and  _557
REMARK  229  A    between atoms: _557  and  _558
REMARK  230  A    between atoms: _557  and  _560
REMARK  231  A    between atoms: _560  and  _561
REMARK  232  A    between atoms: _561  and  _562
REMARK  233  A    between atoms: _562  and  _563
REMARK                            x       y       z     vdW  Elec       q    Type
REMARK                         _______ _______ _______ _____ _____    ______ ____
ROOT
ATOM      1  O   HOH     1      20.313  25.111  12.981  0.00  0.00    +0.000 OA
ENDROOT
TORSDOF 0
REMARK  Name = ../refined-set-2016/2xye/2xye_pocket.pdb
REMARK  233 active torsions:
REMARK  status: ('A' for Active; 'I' for Inactive)
REMARK    1  A    between atoms: _1  and  _3
REMARK    2  A    between atoms: _3  and  _4
REMARK    3  A    between atoms: _3  and  _6
REMARK    4  A    between atoms: _6  and  _7
REMARK    5  A    between atoms: _7  and  _8
REMARK    6  A    between atoms: _8  and  _9
REMARK    7  A    between atoms: _18  and  _20
REMARK    8  A    between atoms: _20  and  _21
REMARK    9  A    between atoms: _20  and  _23
REMARK   10  A    between atoms: _23  and  _24
REMARK   11  A    between atoms: _27  and  _29
REMARK   12  A    between atoms: _29  and  _30
REMARK   13  A    between atoms: _29  and  _32
REMARK   14  A    between atoms: _32  and  _33
REMARK   15  A    between atoms: _36  and  _38
REMARK   16  A    between atoms: _38  and  _39
REMARK   17  A    between atoms: _38  and  _41
REMARK   18  A    between atoms: _41  and  _42
REMARK   19  A    between atoms: _45  and  _47
REMARK   20  A    between atoms: _47  and  _48
REMARK   21  A    between atoms: _47  and  _50
REMARK   22  A    between atoms: _50  and  _51
REMARK   23  A    between atoms: _54  and  _56
REMARK   24  A    between atoms: _56  and  _57
REMARK   25  A    between atoms: _59  and  _61
REMARK   26  A    between atoms: _61  and  _62
REMARK   27  A    between atoms: _65  and  _67
REMARK   28  A    between atoms: _67  and  _68
REMARK   29  A    between atoms: _67  and  _70
REMARK   30  A    between atoms: _70  and  _71
REMARK   31  A    between atoms: _74  and  _76
REMARK   32  A    between atoms: _76  and  _77
REMARK   33  A    between atoms: _76  and  _79
REMARK   34  A    between atoms: _79  and  _80
REMARK   35  A    between atoms: _83  and  _85
REMARK   36  A    between atoms: _85  and  _86
REMARK   37  A    between atoms: _85  and  _88
REMARK   38  A    between atoms: _88  and  _89
REMARK   39  A    between atoms: _92  and  _94
REMARK   40  A    between atoms: _94  and  _95
REMARK   41  A    between atoms: _94  and  _97
REMARK   42  A    between atoms: _100  and  _102
REMARK   43  A    between atoms: _102  and  _103
REMARK   44  A    between atoms: _102  and  _105
REMARK   45  A    between atoms: _105  and  _106
REMARK   46  A    between atoms: _106  and  _107
REMARK   47  A    between atoms: _107  and  _108
REMARK   48  A    between atoms: _108  and  _109
REMARK   49  A    between atoms: _113  and  _115
REMARK   50  A    between atoms: _115  and  _116
REMARK   51  A    between atoms: _115  and  _118
REMARK   52  A    between atoms: _118  and  _119
REMARK   53  A    between atoms: _119  and  _120
REMARK   54  A    between atoms: _122  and  _124
REMARK   55  A    between atoms: _124  and  _125
REMARK   56  A    between atoms: _124  and  _127
REMARK   57  A    between atoms: _127  and  _128
REMARK   58  A    between atoms: _131  and  _133
REMARK   59  A    between atoms: _133  and  _134
REMARK   60  A    between atoms: _136  and  _138
REMARK   61  A    between atoms: _138  and  _139
REMARK   62  A    between atoms: _141  and  _143
REMARK   63  A    between atoms: _143  and  _144
REMARK   64  A    between atoms: _143  and  _146
REMARK   65  A    between atoms: _146  and  _147
REMARK   66  A    between atoms: _150  and  _152
REMARK   67  A    between atoms: _152  and  _153
REMARK   68  A    between atoms: _155  and  _157
REMARK   69  A    between atoms: _157  and  _158
REMARK   70  A    between atoms: _160  and  _162
REMARK   71  A    between atoms: _162  and  _163
REMARK   72  A    between atoms: _162  and  _165
REMARK   73  A    between atoms: _165  and  _166
REMARK   74  A    between atoms: _172  and  _174
REMARK   75  A    between atoms: _174  and  _175
REMARK   76  A    between atoms: _174  and  _177
REMARK   77  A    between atoms: _177  and  _178
REMARK   78  A    between atoms: _181  and  _183
REMARK   79  A    between atoms: _183  and  _184
REMARK   80  A    between atoms: _183  and  _186
REMARK   81  A    between atoms: _189  and  _191
REMARK   82  A    between atoms: _191  and  _192
REMARK   83  A    between atoms: _191  and  _194
REMARK   84  A    between atoms: _194  and  _195
REMARK   85  A    between atoms: _198  and  _200
REMARK   86  A    between atoms: _200  and  _201
REMARK   87  A    between atoms: _200  and  _203
REMARK   88  A    between atoms: _203  and  _204
REMARK   89  A    between atoms: _208  and  _209
REMARK   90  A    between atoms: _214  and  _216
REMARK   91  A    between atoms: _216  and  _217
REMARK   92  A    between atoms: _216  and  _219
REMARK   93  A    between atoms: _219  and  _220
REMARK   94  A    between atoms: _223  and  _225
REMARK   95  A    between atoms: _225  and  _226
REMARK   96  A    between atoms: _225  and  _228
REMARK   97  A    between atoms: _228  and  _229
REMARK   98  A    between atoms: _234  and  _236
REMARK   99  A    between atoms: _236  and  _237
REMARK  100  A    between atoms: _236  and  _239
REMARK  101  A    between atoms: _242  and  _244
REMARK  102  A    between atoms: _244  and  _245
REMARK  103  A    between atoms: _244  and  _247
REMARK  104  A    between atoms: _247  and  _248
REMARK  105  A    between atoms: _251  and  _253
REMARK  106  A    between atoms: _253  and  _254
REMARK  107  A    between atoms: _256  and  _258
REMARK  108  A    between atoms: _258  and  _259
REMARK  109  A    between atoms: _258  and  _261
REMARK  110  A    between atoms: _261  and  _262
REMARK  111  A    between atoms: _262  and  _263
REMARK  112  A    between atoms: _263  and  _264
REMARK  113  A    between atoms: _273  and  _275
REMARK  114  A    between atoms: _275  and  _276
REMARK  115  A    between atoms: _275  and  _278
REMARK  116  A    between atoms: _278  and  _279
REMARK  117  A    between atoms: _284  and  _286
REMARK  118  A    between atoms: _286  and  _287
REMARK  119  A    between atoms: _286  and  _289
REMARK  120  A    between atoms: _289  and  _290
REMARK  121  A    between atoms: _290  and  _291
REMARK  122  A    between atoms: _291  and  _292
REMARK  123  A    between atoms: _302  and  _303
REMARK  124  A    between atoms: _308  and  _310
REMARK  125  A    between atoms: _310  and  _311
REMARK  126  A    between atoms: _310  and  _313
REMARK  127  A    between atoms: _313  and  _314
REMARK  128  A    between atoms: _317  and  _319
REMARK  129  A    between atoms: _319  and  _320
REMARK  130  A    between atoms: _319  and  _322
REMARK  131  A    between atoms: _322  and  _323
REMARK  132  A    between atoms: _326  and  _328
REMARK  133  A    between atoms: _328  and  _329
REMARK  134  A    between atoms: _328  and  _331
REMARK  135  A    between atoms: _331  and  _332
REMARK  136  A    between atoms: _335  and  _337
REMARK  137  A    between atoms: _337  and  _338
REMARK  138  A    between atoms: _337  and  _340
REMARK  139  A    between atoms: _340  and  _341
REMARK  140  A    between atoms: _344  and  _346
REMARK  141  A    between atoms: _346  and  _347
REMARK  142  A    between atoms: _346  and  _349
REMARK  143  A    between atoms: _349  and  _350
REMARK  144  A    between atoms: _353  and  _355
REMARK  145  A    between atoms: _355  and  _356
REMARK  146  A    between atoms: _358  and  _360
REMARK  147  A    between atoms: _360  and  _361
REMARK  148  A    between atoms: _364  and  _366
REMARK  149  A    between atoms: _366  and  _367
REMARK  150  A    between atoms: _366  and  _369
REMARK  151  A    between atoms: _369  and  _370
REMARK  152  A    between atoms: _373  and  _375
REMARK  153  A    between atoms: _375  and  _376
REMARK  154  A    between atoms: _375  and  _378
REMARK  155  A    between atoms: _378  and  _379
REMARK  156  A    between atoms: _382  and  _384
REMARK  157  A    between atoms: _384  and  _385
REMARK  158  A    between atoms: _384  and  _387
REMARK  159  A    between atoms: _387  and  _388
REMARK  160  A    between atoms: _391  and  _393
REMARK  161  A    between atoms: _393  and  _394
REMARK  162  A    between atoms: _393  and  _396
REMARK  163  A    between atoms: _399  and  _401
REMARK  164  A    between atoms: _401  and  _402
REMARK  165  A    between atoms: _401  and  _404
REMARK  166  A    between atoms: _404  and  _405
REMARK  167  A    between atoms: _405  and  _406
REMARK  168  A    between atoms: _406  and  _407
REMARK  169  A    between atoms: _407  and  _408
REMARK  170  A    between atoms: _412  and  _414
REMARK  171  A    between atoms: _414  and  _415
REMARK  172  A    between atoms: _414  and  _417
REMARK  173  A    between atoms: _417  and  _418
REMARK  174  A    between atoms: _418  and  _419
REMARK  175  A    between atoms: _421  and  _423
REMARK  176  A    between atoms: _423  and  _424
REMARK  177  A    between atoms: _423  and  _426
REMARK  178  A    between atoms: _426  and  _427
REMARK  179  A    between atoms: _430  and  _432
REMARK  180  A    between atoms: _432  and  _433
REMARK  181  A    between atoms: _435  and  _437
REMARK  182  A    between atoms: _437  and  _438
REMARK  183  A    between atoms: _440  and  _442
REMARK  184  A    between atoms: _442  and  _443
REMARK  185  A    between atoms: _442  and  _445
REMARK  186  A    between atoms: _445  and  _446
REMARK  187  A    between atoms: _449  and  _451
REMARK  188  A    between atoms: _451  and  _452
REMARK  189  A    between atoms: _454  and  _456
REMARK  190  A    between atoms: _456  and  _457
REMARK  191  A    between atoms: _459  and  _461
REMARK  192  A    between atoms: _461  and  _462
REMARK  193  A    between atoms: _461  and  _464
REMARK  194  A    between atoms: _464  and  _465
REMARK  195  A    between atoms: _471  and  _473
REMARK  196  A    between atoms: _473  and  _474
REMARK  197  A    between atoms: _473  and  _476
REMARK  198  A    between atoms: _476  and  _477
REMARK  199  A    between atoms: _480  and  _482
REMARK  200  A    between atoms: _482  and  _483
REMARK  201  A    between atoms: _482  and  _485
REMARK  202  A    between atoms: _488  and  _490
REMARK  203  A    between atoms: _490  and  _491
REMARK  204  A    between atoms: _490  and  _493
REMARK  205  A    between atoms: _493  and  _494
REMARK  206  A    between atoms: _497  and  _499
REMARK  207  A    between atoms: _499  and  _500
REMARK  208  A    between atoms: _499  and  _502
REMARK  209  A    between atoms: _502  and  _503
REMARK  210  A    between atoms: _507  and  _508
REMARK  211  A    between atoms: _513  and  _515
REMARK  212  A    between atoms: _515  and  _516
REMARK  213  A    between atoms: _515  and  _518
REMARK  214  A    between atoms: _518  and  _519
REMARK  215  A    between atoms: _522  and  _524
REMARK  216  A    between atoms: _524  and  _525
REMARK  217  A    between atoms: _524  and  _527
REMARK  218  A    between atoms: _527  and  _528
REMARK  219  A    between atoms: _533  and  _535
REMARK  220  A    between atoms: _535  and  _536
REMARK  221  A    between atoms: _535  and  _538
REMARK  222  A    between atoms: _541  and  _543
REMARK  223  A    between atoms: _543  and  _544
REMARK  224  A    between atoms: _543  and  _546
REMARK  225  A    between atoms: _546  and  _547
REMARK  226  A    between atoms: _550  and  _552
REMARK  227  A    between atoms: _552  and  _553
REMARK  228  A    between atoms: _555  and  _557
REMARK  229  A    between atoms: _557  and  _558
REMARK  230  A    between atoms: _557  and  _560
REMARK  231  A    between atoms: _560  and  _561
REMARK  232  A    between atoms: _561  and  _562
REMARK  233  A    between atoms: _562  and  _563
REMARK                            x       y       z     vdW  Elec       q    Type
REMARK                         _______ _______ _______ _____ _____    ______ ____
ROOT
ATOM      1  O   HOH     1      19.505  23.635  16.044  0.00  0.00    +0.000 OA
ENDROOT
TORSDOF 0
REMARK  Name = ../refined-set-2016/2xye/2xye_pocket.pdb
REMARK  233 active torsions:
REMARK  status: ('A' for Active; 'I' for Inactive)
REMARK    1  A    between atoms: _1  and  _3
REMARK    2  A    between atoms: _3  and  _4
REMARK    3  A    between atoms: _3  and  _6
REMARK    4  A    between atoms: _6  and  _7
REMARK    5  A    between atoms: _7  and  _8
REMARK    6  A    between atoms: _8  and  _9
REMARK    7  A    between atoms: _18  and  _20
REMARK    8  A    between atoms: _20  and  _21
REMARK    9  A    between atoms: _20  and  _23
REMARK   10  A    between atoms: _23  and  _24
REMARK   11  A    between atoms: _27  and  _29
REMARK   12  A    between atoms: _29  and  _30
REMARK   13  A    between atoms: _29  and  _32
REMARK   14  A    between atoms: _32  and  _33
REMARK   15  A    between atoms: _36  and  _38
REMARK   16  A    between atoms: _38  and  _39
REMARK   17  A    between atoms: _38  and  _41
REMARK   18  A    between atoms: _41  and  _42
REMARK   19  A    between atoms: _45  and  _47
REMARK   20  A    between atoms: _47  and  _48
REMARK   21  A    between atoms: _47  and  _50
REMARK   22  A    between atoms: _50  and  _51
REMARK   23  A    between atoms: _54  and  _56
REMARK   24  A    between atoms: _56  and  _57
REMARK   25  A    between atoms: _59  and  _61
REMARK   26  A    between atoms: _61  and  _62
REMARK   27  A    between atoms: _65  and  _67
REMARK   28  A    between atoms: _67  and  _68
REMARK   29  A    between atoms: _67  and  _70
REMARK   30  A    between atoms: _70  and  _71
REMARK   31  A    between atoms: _74  and  _76
REMARK   32  A    between atoms: _76  and  _77
REMARK   33  A    between atoms: _76  and  _79
REMARK   34  A    between atoms: _79  and  _80
REMARK   35  A    between atoms: _83  and  _85
REMARK   36  A    between atoms: _85  and  _86
REMARK   37  A    between atoms: _85  and  _88
REMARK   38  A    between atoms: _88  and  _89
REMARK   39  A    between atoms: _92  and  _94
REMARK   40  A    between atoms: _94  and  _95
REMARK   41  A    between atoms: _94  and  _97
REMARK   42  A    between atoms: _100  and  _102
REMARK   43  A    between atoms: _102  and  _103
REMARK   44  A    between atoms: _102  and  _105
REMARK   45  A    between atoms: _105  and  _106
REMARK   46  A    between atoms: _106  and  _107
REMARK   47  A    between atoms: _107  and  _108
REMARK   48  A    between atoms: _108  and  _109
REMARK   49  A    between atoms: _113  and  _115
REMARK   50  A    between atoms: _115  and  _116
REMARK   51  A    between atoms: _115  and  _118
REMARK   52  A    between atoms: _118  and  _119
REMARK   53  A    between atoms: _119  and  _120
REMARK   54  A    between atoms: _122  and  _124
REMARK   55  A    between atoms: _124  and  _125
REMARK   56  A    between atoms: _124  and  _127
REMARK   57  A    between atoms: _127  and  _128
REMARK   58  A    between atoms: _131  and  _133
REMARK   59  A    between atoms: _133  and  _134
REMARK   60  A    between atoms: _136  and  _138
REMARK   61  A    between atoms: _138  and  _139
REMARK   62  A    between atoms: _141  and  _143
REMARK   63  A    between atoms: _143  and  _144
REMARK   64  A    between atoms: _143  and  _146
REMARK   65  A    between atoms: _146  and  _147
REMARK   66  A    between atoms: _150  and  _152
REMARK   67  A    between atoms: _152  and  _153
REMARK   68  A    between atoms: _155  and  _157
REMARK   69  A    between atoms: _157  and  _158
REMARK   70  A    between atoms: _160  and  _162
REMARK   71  A    between atoms: _162  and  _163
REMARK   72  A    between atoms: _162  and  _165
REMARK   73  A    between atoms: _165  and  _166
REMARK   74  A    between atoms: _172  and  _174
REMARK   75  A    between atoms: _174  and  _175
REMARK   76  A    between atoms: _174  and  _177
REMARK   77  A    between atoms: _177  and  _178
REMARK   78  A    between atoms: _181  and  _183
REMARK   79  A    between atoms: _183  and  _184
REMARK   80  A    between atoms: _183  and  _186
REMARK   81  A    between atoms: _189  and  _191
REMARK   82  A    between atoms: _191  and  _192
REMARK   83  A    between atoms: _191  and  _194
REMARK   84  A    between atoms: _194  and  _195
REMARK   85  A    between atoms: _198  and  _200
REMARK   86  A    between atoms: _200  and  _201
REMARK   87  A    between atoms: _200  and  _203
REMARK   88  A    between atoms: _203  and  _204
REMARK   89  A    between atoms: _208  and  _209
REMARK   90  A    between atoms: _214  and  _216
REMARK   91  A    between atoms: _216  and  _217
REMARK   92  A    between atoms: _216  and  _219
REMARK   93  A    between atoms: _219  and  _220
REMARK   94  A    between atoms: _223  and  _225
REMARK   95  A    between atoms: _225  and  _226
REMARK   96  A    between atoms: _225  and  _228
REMARK   97  A    between atoms: _228  and  _229
REMARK   98  A    between atoms: _234  and  _236
REMARK   99  A    between atoms: _236  and  _237
REMARK  100  A    between atoms: _236  and  _239
REMARK  101  A    between atoms: _242  and  _244
REMARK  102  A    between atoms: _244  and  _245
REMARK  103  A    between atoms: _244  and  _247
REMARK  104  A    between atoms: _247  and  _248
REMARK  105  A    between atoms: _251  and  _253
REMARK  106  A    between atoms: _253  and  _254
REMARK  107  A    between atoms: _256  and  _258
REMARK  108  A    between atoms: _258  and  _259
REMARK  109  A    between atoms: _258  and  _261
REMARK  110  A    between atoms: _261  and  _262
REMARK  111  A    between atoms: _262  and  _263
REMARK  112  A    between atoms: _263  and  _264
REMARK  113  A    between atoms: _273  and  _275
REMARK  114  A    between atoms: _275  and  _276
REMARK  115  A    between atoms: _275  and  _278
REMARK  116  A    between atoms: _278  and  _279
REMARK  117  A    between atoms: _284  and  _286
REMARK  118  A    between atoms: _286  and  _287
REMARK  119  A    between atoms: _286  and  _289
REMARK  120  A    between atoms: _289  and  _290
REMARK  121  A    between atoms: _290  and  _291
REMARK  122  A    between atoms: _291  and  _292
REMARK  123  A    between atoms: _302  and  _303
REMARK  124  A    between atoms: _308  and  _310
REMARK  125  A    between atoms: _310  and  _311
REMARK  126  A    between atoms: _310  and  _313
REMARK  127  A    between atoms: _313  and  _314
REMARK  128  A    between atoms: _317  and  _319
REMARK  129  A    between atoms: _319  and  _320
REMARK  130  A    between atoms: _319  and  _322
REMARK  131  A    between atoms: _322  and  _323
REMARK  132  A    between atoms: _326  and  _328
REMARK  133  A    between atoms: _328  and  _329
REMARK  134  A    between atoms: _328  and  _331
REMARK  135  A    between atoms: _331  and  _332
REMARK  136  A    between atoms: _335  and  _337
REMARK  137  A    between atoms: _337  and  _338
REMARK  138  A    between atoms: _337  and  _340
REMARK  139  A    between atoms: _340  and  _341
REMARK  140  A    between atoms: _344  and  _346
REMARK  141  A    between atoms: _346  and  _347
REMARK  142  A    between atoms: _346  and  _349
REMARK  143  A    between atoms: _349  and  _350
REMARK  144  A    between atoms: _353  and  _355
REMARK  145  A    between atoms: _355  and  _356
REMARK  146  A    between atoms: _358  and  _360
REMARK  147  A    between atoms: _360  and  _361
REMARK  148  A    between atoms: _364  and  _366
REMARK  149  A    between atoms: _366  and  _367
REMARK  150  A    between atoms: _366  and  _369
REMARK  151  A    between atoms: _369  and  _370
REMARK  152  A    between atoms: _373  and  _375
REMARK  153  A    between atoms: _375  and  _376
REMARK  154  A    between atoms: _375  and  _378
REMARK  155  A    between atoms: _378  and  _379
REMARK  156  A    between atoms: _382  and  _384
REMARK  157  A    between atoms: _384  and  _385
REMARK  158  A    between atoms: _384  and  _387
REMARK  159  A    between atoms: _387  and  _388
REMARK  160  A    between atoms: _391  and  _393
REMARK  161  A    between atoms: _393  and  _394
REMARK  162  A    between atoms: _393  and  _396
REMARK  163  A    between atoms: _399  and  _401
REMARK  164  A    between atoms: _401  and  _402
REMARK  165  A    between atoms: _401  and  _404
REMARK  166  A    between atoms: _404  and  _405
REMARK  167  A    between atoms: _405  and  _406
REMARK  168  A    between atoms: _406  and  _407
REMARK  169  A    between atoms: _407  and  _408
REMARK  170  A    between atoms: _412  and  _414
REMARK  171  A    between atoms: _414  and  _415
REMARK  172  A    between atoms: _414  and  _417
REMARK  173  A    between atoms: _417  and  _418
REMARK  174  A    between atoms: _418  and  _419
REMARK  175  A    between atoms: _421  and  _423
REMARK  176  A    between atoms: _423  and  _424
REMARK  177  A    between atoms: _423  and  _426
REMARK  178  A    between atoms: _426  and  _427
REMARK  179  A    between atoms: _430  and  _432
REMARK  180  A    between atoms: _432  and  _433
REMARK  181  A    between atoms: _435  and  _437
REMARK  182  A    between atoms: _437  and  _438
REMARK  183  A    between atoms: _440  and  _442
REMARK  184  A    between atoms: _442  and  _443
REMARK  185  A    between atoms: _442  and  _445
REMARK  186  A    between atoms: _445  and  _446
REMARK  187  A    between atoms: _449  and  _451
REMARK  188  A    between atoms: _451  and  _452
REMARK  189  A    between atoms: _454  and  _456
REMARK  190  A    between atoms: _456  and  _457
REMARK  191  A    between atoms: _459  and  _461
REMARK  192  A    between atoms: _461  and  _462
REMARK  193  A    between atoms: _461  and  _464
REMARK  194  A    between atoms: _464  and  _465
REMARK  195  A    between atoms: _471  and  _473
REMARK  196  A    between atoms: _473  and  _474
REMARK  197  A    between atoms: _473  and  _476
REMARK  198  A    between atoms: _476  and  _477
REMARK  199  A    between atoms: _480  and  _482
REMARK  200  A    between atoms: _482  and  _483
REMARK  201  A    between atoms: _482  and  _485
REMARK  202  A    between atoms: _488  and  _490
REMARK  203  A    between atoms: _490  and  _491
REMARK  204  A    between atoms: _490  and  _493
REMARK  205  A    between atoms: _493  and  _494
REMARK  206  A    between atoms: _497  and  _499
REMARK  207  A    between atoms: _499  and  _500
REMARK  208  A    between atoms: _499  and  _502
REMARK  209  A    between atoms: _502  and  _503
REMARK  210  A    between atoms: _507  and  _508
REMARK  211  A    between atoms: _513  and  _515
REMARK  212  A    between atoms: _515  and  _516
REMARK  213  A    between atoms: _515  and  _518
REMARK  214  A    between atoms: _518  and  _519
REMARK  215  A    between atoms: _522  and  _524
REMARK  216  A    between atoms: _524  and  _525
REMARK  217  A    between atoms: _524  and  _527
REMARK  218  A    between atoms: _527  and  _528
REMARK  219  A    between atoms: _533  and  _535
REMARK  220  A    between atoms: _535  and  _536
REMARK  221  A    between atoms: _535  and  _538
REMARK  222  A    between atoms: _541  and  _543
REMARK  223  A    between atoms: _543  and  _544
REMARK  224  A    between atoms: _543  and  _546
REMARK  225  A    between atoms: _546  and  _547
REMARK  226  A    between atoms: _550  and  _552
REMARK  227  A    between atoms: _552  and  _553
REMARK  228  A    between atoms: _555  and  _557
REMARK  229  A    between atoms: _557  and  _558
REMARK  230  A    between atoms: _557  and  _560
REMARK  231  A    between atoms: _560  and  _561
REMARK  232  A    between atoms: _561  and  _562
REMARK  233  A    between atoms: _562  and  _563
REMARK                            x       y       z     vdW  Elec       q    Type
REMARK                         _______ _______ _______ _____ _____    ______ ____
ROOT
ATOM      1  O   HOH     1      10.591  30.820   1.648  0.00  0.00    +0.000 OA
ENDROOT
TORSDOF 0
REMARK  Name = ../refined-set-2016/2xye/2xye_pocket.pdb
REMARK  233 active torsions:
REMARK  status: ('A' for Active; 'I' for Inactive)
REMARK    1  A    between atoms: _1  and  _3
REMARK    2  A    between atoms: _3  and  _4
REMARK    3  A    between atoms: _3  and  _6
REMARK    4  A    between atoms: _6  and  _7
REMARK    5  A    between atoms: _7  and  _8
REMARK    6  A    between atoms: _8  and  _9
REMARK    7  A    between atoms: _18  and  _20
REMARK    8  A    between atoms: _20  and  _21
REMARK    9  A    between atoms: _20  and  _23
REMARK   10  A    between atoms: _23  and  _24
REMARK   11  A    between atoms: _27  and  _29
REMARK   12  A    between atoms: _29  and  _30
REMARK   13  A    between atoms: _29  and  _32
REMARK   14  A    between atoms: _32  and  _33
REMARK   15  A    between atoms: _36  and  _38
REMARK   16  A    between atoms: _38  and  _39
REMARK   17  A    between atoms: _38  and  _41
REMARK   18  A    between atoms: _41  and  _42
REMARK   19  A    between atoms: _45  and  _47
REMARK   20  A    between atoms: _47  and  _48
REMARK   21  A    between atoms: _47  and  _50
REMARK   22  A    between atoms: _50  and  _51
REMARK   23  A    between atoms: _54  and  _56
REMARK   24  A    between atoms: _56  and  _57
REMARK   25  A    between atoms: _59  and  _61
REMARK   26  A    between atoms: _61  and  _62
REMARK   27  A    between atoms: _65  and  _67
REMARK   28  A    between atoms: _67  and  _68
REMARK   29  A    between atoms: _67  and  _70
REMARK   30  A    between atoms: _70  and  _71
REMARK   31  A    between atoms: _74  and  _76
REMARK   32  A    between atoms: _76  and  _77
REMARK   33  A    between atoms: _76  and  _79
REMARK   34  A    between atoms: _79  and  _80
REMARK   35  A    between atoms: _83  and  _85
REMARK   36  A    between atoms: _85  and  _86
REMARK   37  A    between atoms: _85  and  _88
REMARK   38  A    between atoms: _88  and  _89
REMARK   39  A    between atoms: _92  and  _94
REMARK   40  A    between atoms: _94  and  _95
REMARK   41  A    between atoms: _94  and  _97
REMARK   42  A    between atoms: _100  and  _102
REMARK   43  A    between atoms: _102  and  _103
REMARK   44  A    between atoms: _102  and  _105
REMARK   45  A    between atoms: _105  and  _106
REMARK   46  A    between atoms: _106  and  _107
REMARK   47  A    between atoms: _107  and  _108
REMARK   48  A    between atoms: _108  and  _109
REMARK   49  A    between atoms: _113  and  _115
REMARK   50  A    between atoms: _115  and  _116
REMARK   51  A    between atoms: _115  and  _118
REMARK   52  A    between atoms: _118  and  _119
REMARK   53  A    between atoms: _119  and  _120
REMARK   54  A    between atoms: _122  and  _124
REMARK   55  A    between atoms: _124  and  _125
REMARK   56  A    between atoms: _124  and  _127
REMARK   57  A    between atoms: _127  and  _128
REMARK   58  A    between atoms: _131  and  _133
REMARK   59  A    between atoms: _133  and  _134
REMARK   60  A    between atoms: _136  and  _138
REMARK   61  A    between atoms: _138  and  _139
REMARK   62  A    between atoms: _141  and  _143
REMARK   63  A    between atoms: _143  and  _144
REMARK   64  A    between atoms: _143  and  _146
REMARK   65  A    between atoms: _146  and  _147
REMARK   66  A    between atoms: _150  and  _152
REMARK   67  A    between atoms: _152  and  _153
REMARK   68  A    between atoms: _155  and  _157
REMARK   69  A    between atoms: _157  and  _158
REMARK   70  A    between atoms: _160  and  _162
REMARK   71  A    between atoms: _162  and  _163
REMARK   72  A    between atoms: _162  and  _165
REMARK   73  A    between atoms: _165  and  _166
REMARK   74  A    between atoms: _172  and  _174
REMARK   75  A    between atoms: _174  and  _175
REMARK   76  A    between atoms: _174  and  _177
REMARK   77  A    between atoms: _177  and  _178
REMARK   78  A    between atoms: _181  and  _183
REMARK   79  A    between atoms: _183  and  _184
REMARK   80  A    between atoms: _183  and  _186
REMARK   81  A    between atoms: _189  and  _191
REMARK   82  A    between atoms: _191  and  _192
REMARK   83  A    between atoms: _191  and  _194
REMARK   84  A    between atoms: _194  and  _195
REMARK   85  A    between atoms: _198  and  _200
REMARK   86  A    between atoms: _200  and  _201
REMARK   87  A    between atoms: _200  and  _203
REMARK   88  A    between atoms: _203  and  _204
REMARK   89  A    between atoms: _208  and  _209
REMARK   90  A    between atoms: _214  and  _216
REMARK   91  A    between atoms: _216  and  _217
REMARK   92  A    between atoms: _216  and  _219
REMARK   93  A    between atoms: _219  and  _220
REMARK   94  A    between atoms: _223  and  _225
REMARK   95  A    between atoms: _225  and  _226
REMARK   96  A    between atoms: _225  and  _228
REMARK   97  A    between atoms: _228  and  _229
REMARK   98  A    between atoms: _234  and  _236
REMARK   99  A    between atoms: _236  and  _237
REMARK  100  A    between atoms: _236  and  _239
REMARK  101  A    between atoms: _242  and  _244
REMARK  102  A    between atoms: _244  and  _245
REMARK  103  A    between atoms: _244  and  _247
REMARK  104  A    between atoms: _247  and  _248
REMARK  105  A    between atoms: _251  and  _253
REMARK  106  A    between atoms: _253  and  _254
REMARK  107  A    between atoms: _256  and  _258
REMARK  108  A    between atoms: _258  and  _259
REMARK  109  A    between atoms: _258  and  _261
REMARK  110  A    between atoms: _261  and  _262
REMARK  111  A    between atoms: _262  and  _263
REMARK  112  A    between atoms: _263  and  _264
REMARK  113  A    between atoms: _273  and  _275
REMARK  114  A    between atoms: _275  and  _276
REMARK  115  A    between atoms: _275  and  _278
REMARK  116  A    between atoms: _278  and  _279
REMARK  117  A    between atoms: _284  and  _286
REMARK  118  A    between atoms: _286  and  _287
REMARK  119  A    between atoms: _286  and  _289
REMARK  120  A    between atoms: _289  and  _290
REMARK  121  A    between atoms: _290  and  _291
REMARK  122  A    between atoms: _291  and  _292
REMARK  123  A    between atoms: _302  and  _303
REMARK  124  A    between atoms: _308  and  _310
REMARK  125  A    between atoms: _310  and  _311
REMARK  126  A    between atoms: _310  and  _313
REMARK  127  A    between atoms: _313  and  _314
REMARK  128  A    between atoms: _317  and  _319
REMARK  129  A    between atoms: _319  and  _320
REMARK  130  A    between atoms: _319  and  _322
REMARK  131  A    between atoms: _322  and  _323
REMARK  132  A    between atoms: _326  and  _328
REMARK  133  A    between atoms: _328  and  _329
REMARK  134  A    between atoms: _328  and  _331
REMARK  135  A    between atoms: _331  and  _332
REMARK  136  A    between atoms: _335  and  _337
REMARK  137  A    between atoms: _337  and  _338
REMARK  138  A    between atoms: _337  and  _340
REMARK  139  A    between atoms: _340  and  _341
REMARK  140  A    between atoms: _344  and  _346
REMARK  141  A    between atoms: _346  and  _347
REMARK  142  A    between atoms: _346  and  _349
REMARK  143  A    between atoms: _349  and  _350
REMARK  144  A    between atoms: _353  and  _355
REMARK  145  A    between atoms: _355  and  _356
REMARK  146  A    between atoms: _358  and  _360
REMARK  147  A    between atoms: _360  and  _361
REMARK  148  A    between atoms: _364  and  _366
REMARK  149  A    between atoms: _366  and  _367
REMARK  150  A    between atoms: _366  and  _369
REMARK  151  A    between atoms: _369  and  _370
REMARK  152  A    between atoms: _373  and  _375
REMARK  153  A    between atoms: _375  and  _376
REMARK  154  A    between atoms: _375  and  _378
REMARK  155  A    between atoms: _378  and  _379
REMARK  156  A    between atoms: _382  and  _384
REMARK  157  A    between atoms: _384  and  _385
REMARK  158  A    between atoms: _384  and  _387
REMARK  159  A    between atoms: _387  and  _388
REMARK  160  A    between atoms: _391  and  _393
REMARK  161  A    between atoms: _393  and  _394
REMARK  162  A    between atoms: _393  and  _396
REMARK  163  A    between atoms: _399  and  _401
REMARK  164  A    between atoms: _401  and  _402
REMARK  165  A    between atoms: _401  and  _404
REMARK  166  A    between atoms: _404  and  _405
REMARK  167  A    between atoms: _405  and  _406
REMARK  168  A    between atoms: _406  and  _407
REMARK  169  A    between atoms: _407  and  _408
REMARK  170  A    between atoms: _412  and  _414
REMARK  171  A    between atoms: _414  and  _415
REMARK  172  A    between atoms: _414  and  _417
REMARK  173  A    between atoms: _417  and  _418
REMARK  174  A    between atoms: _418  and  _419
REMARK  175  A    between atoms: _421  and  _423
REMARK  176  A    between atoms: _423  and  _424
REMARK  177  A    between atoms: _423  and  _426
REMARK  178  A    between atoms: _426  and  _427
REMARK  179  A    between atoms: _430  and  _432
REMARK  180  A    between atoms: _432  and  _433
REMARK  181  A    between atoms: _435  and  _437
REMARK  182  A    between atoms: _437  and  _438
REMARK  183  A    between atoms: _440  and  _442
REMARK  184  A    between atoms: _442  and  _443
REMARK  185  A    between atoms: _442  and  _445
REMARK  186  A    between atoms: _445  and  _446
REMARK  187  A    between atoms: _449  and  _451
REMARK  188  A    between atoms: _451  and  _452
REMARK  189  A    between atoms: _454  and  _456
REMARK  190  A    between atoms: _456  and  _457
REMARK  191  A    between atoms: _459  and  _461
REMARK  192  A    between atoms: _461  and  _462
REMARK  193  A    between atoms: _461  and  _464
REMARK  194  A    between atoms: _464  and  _465
REMARK  195  A    between atoms: _471  and  _473
REMARK  196  A    between atoms: _473  and  _474
REMARK  197  A    between atoms: _473  and  _476
REMARK  198  A    between atoms: _476  and  _477
REMARK  199  A    between atoms: _480  and  _482
REMARK  200  A    between atoms: _482  and  _483
REMARK  201  A    between atoms: _482  and  _485
REMARK  202  A    between atoms: _488  and  _490
REMARK  203  A    between atoms: _490  and  _491
REMARK  204  A    between atoms: _490  and  _493
REMARK  205  A    between atoms: _493  and  _494
REMARK  206  A    between atoms: _497  and  _499
REMARK  207  A    between atoms: _499  and  _500
REMARK  208  A    between atoms: _499  and  _502
REMARK  209  A    between atoms: _502  and  _503
REMARK  210  A    between atoms: _507  and  _508
REMARK  211  A    between atoms: _513  and  _515
REMARK  212  A    between atoms: _515  and  _516
REMARK  213  A    between atoms: _515  and  _518
REMARK  214  A    between atoms: _518  and  _519
REMARK  215  A    between atoms: _522  and  _524
REMARK  216  A    between atoms: _524  and  _525
REMARK  217  A    between atoms: _524  and  _527
REMARK  218  A    between atoms: _527  and  _528
REMARK  219  A    between atoms: _533  and  _535
REMARK  220  A    between atoms: _535  and  _536
REMARK  221  A    between atoms: _535  and  _538
REMARK  222  A    between atoms: _541  and  _543
REMARK  223  A    between atoms: _543  and  _544
REMARK  224  A    between atoms: _543  and  _546
REMARK  225  A    between atoms: _546  and  _547
REMARK  226  A    between atoms: _550  and  _552
REMARK  227  A    between atoms: _552  and  _553
REMARK  228  A    between atoms: _555  and  _557
REMARK  229  A    between atoms: _557  and  _558
REMARK  230  A    between atoms: _557  and  _560
REMARK  231  A    between atoms: _560  and  _561
REMARK  232  A    between atoms: _561  and  _562
REMARK  233  A    between atoms: _562  and  _563
REMARK                            x       y       z     vdW  Elec       q    Type
REMARK                         _______ _______ _______ _____ _____    ______ ____
ROOT
ATOM      1  O   HOH     1       5.339  28.909  -3.163  0.00  0.00    +0.000 OA
ENDROOT
TORSDOF 0
REMARK  Name = ../refined-set-2016/2xye/2xye_pocket.pdb
REMARK  233 active torsions:
REMARK  status: ('A' for Active; 'I' for Inactive)
REMARK    1  A    between atoms: _1  and  _3
REMARK    2  A    between atoms: _3  and  _4
REMARK    3  A    between atoms: _3  and  _6
REMARK    4  A    between atoms: _6  and  _7
REMARK    5  A    between atoms: _7  and  _8
REMARK    6  A    between atoms: _8  and  _9
REMARK    7  A    between atoms: _18  and  _20
REMARK    8  A    between atoms: _20  and  _21
REMARK    9  A    between atoms: _20  and  _23
REMARK   10  A    between atoms: _23  and  _24
REMARK   11  A    between atoms: _27  and  _29
REMARK   12  A    between atoms: _29  and  _30
REMARK   13  A    between atoms: _29  and  _32
REMARK   14  A    between atoms: _32  and  _33
REMARK   15  A    between atoms: _36  and  _38
REMARK   16  A    between atoms: _38  and  _39
REMARK   17  A    between atoms: _38  and  _41
REMARK   18  A    between atoms: _41  and  _42
REMARK   19  A    between atoms: _45  and  _47
REMARK   20  A    between atoms: _47  and  _48
REMARK   21  A    between atoms: _47  and  _50
REMARK   22  A    between atoms: _50  and  _51
REMARK   23  A    between atoms: _54  and  _56
REMARK   24  A    between atoms: _56  and  _57
REMARK   25  A    between atoms: _59  and  _61
REMARK   26  A    between atoms: _61  and  _62
REMARK   27  A    between atoms: _65  and  _67
REMARK   28  A    between atoms: _67  and  _68
REMARK   29  A    between atoms: _67  and  _70
REMARK   30  A    between atoms: _70  and  _71
REMARK   31  A    between atoms: _74  and  _76
REMARK   32  A    between atoms: _76  and  _77
REMARK   33  A    between atoms: _76  and  _79
REMARK   34  A    between atoms: _79  and  _80
REMARK   35  A    between atoms: _83  and  _85
REMARK   36  A    between atoms: _85  and  _86
REMARK   37  A    between atoms: _85  and  _88
REMARK   38  A    between atoms: _88  and  _89
REMARK   39  A    between atoms: _92  and  _94
REMARK   40  A    between atoms: _94  and  _95
REMARK   41  A    between atoms: _94  and  _97
REMARK   42  A    between atoms: _100  and  _102
REMARK   43  A    between atoms: _102  and  _103
REMARK   44  A    between atoms: _102  and  _105
REMARK   45  A    between atoms: _105  and  _106
REMARK   46  A    between atoms: _106  and  _107
REMARK   47  A    between atoms: _107  and  _108
REMARK   48  A    between atoms: _108  and  _109
REMARK   49  A    between atoms: _113  and  _115
REMARK   50  A    between atoms: _115  and  _116
REMARK   51  A    between atoms: _115  and  _118
REMARK   52  A    between atoms: _118  and  _119
REMARK   53  A    between atoms: _119  and  _120
REMARK   54  A    between atoms: _122  and  _124
REMARK   55  A    between atoms: _124  and  _125
REMARK   56  A    between atoms: _124  and  _127
REMARK   57  A    between atoms: _127  and  _128
REMARK   58  A    between atoms: _131  and  _133
REMARK   59  A    between atoms: _133  and  _134
REMARK   60  A    between atoms: _136  and  _138
REMARK   61  A    between atoms: _138  and  _139
REMARK   62  A    between atoms: _141  and  _143
REMARK   63  A    between atoms: _143  and  _144
REMARK   64  A    between atoms: _143  and  _146
REMARK   65  A    between atoms: _146  and  _147
REMARK   66  A    between atoms: _150  and  _152
REMARK   67  A    between atoms: _152  and  _153
REMARK   68  A    between atoms: _155  and  _157
REMARK   69  A    between atoms: _157  and  _158
REMARK   70  A    between atoms: _160  and  _162
REMARK   71  A    between atoms: _162  and  _163
REMARK   72  A    between atoms: _162  and  _165
REMARK   73  A    between atoms: _165  and  _166
REMARK   74  A    between atoms: _172  and  _174
REMARK   75  A    between atoms: _174  and  _175
REMARK   76  A    between atoms: _174  and  _177
REMARK   77  A    between atoms: _177  and  _178
REMARK   78  A    between atoms: _181  and  _183
REMARK   79  A    between atoms: _183  and  _184
REMARK   80  A    between atoms: _183  and  _186
REMARK   81  A    between atoms: _189  and  _191
REMARK   82  A    between atoms: _191  and  _192
REMARK   83  A    between atoms: _191  and  _194
REMARK   84  A    between atoms: _194  and  _195
REMARK   85  A    between atoms: _198  and  _200
REMARK   86  A    between atoms: _200  and  _201
REMARK   87  A    between atoms: _200  and  _203
REMARK   88  A    between atoms: _203  and  _204
REMARK   89  A    between atoms: _208  and  _209
REMARK   90  A    between atoms: _214  and  _216
REMARK   91  A    between atoms: _216  and  _217
REMARK   92  A    between atoms: _216  and  _219
REMARK   93  A    between atoms: _219  and  _220
REMARK   94  A    between atoms: _223  and  _225
REMARK   95  A    between atoms: _225  and  _226
REMARK   96  A    between atoms: _225  and  _228
REMARK   97  A    between atoms: _228  and  _229
REMARK   98  A    between atoms: _234  and  _236
REMARK   99  A    between atoms: _236  and  _237
REMARK  100  A    between atoms: _236  and  _239
REMARK  101  A    between atoms: _242  and  _244
REMARK  102  A    between atoms: _244  and  _245
REMARK  103  A    between atoms: _244  and  _247
REMARK  104  A    between atoms: _247  and  _248
REMARK  105  A    between atoms: _251  and  _253
REMARK  106  A    between atoms: _253  and  _254
REMARK  107  A    between atoms: _256  and  _258
REMARK  108  A    between atoms: _258  and  _259
REMARK  109  A    between atoms: _258  and  _261
REMARK  110  A    between atoms: _261  and  _262
REMARK  111  A    between atoms: _262  and  _263
REMARK  112  A    between atoms: _263  and  _264
REMARK  113  A    between atoms: _273  and  _275
REMARK  114  A    between atoms: _275  and  _276
REMARK  115  A    between atoms: _275  and  _278
REMARK  116  A    between atoms: _278  and  _279
REMARK  117  A    between atoms: _284  and  _286
REMARK  118  A    between atoms: _286  and  _287
REMARK  119  A    between atoms: _286  and  _289
REMARK  120  A    between atoms: _289  and  _290
REMARK  121  A    between atoms: _290  and  _291
REMARK  122  A    between atoms: _291  and  _292
REMARK  123  A    between atoms: _302  and  _303
REMARK  124  A    between atoms: _308  and  _310
REMARK  125  A    between atoms: _310  and  _311
REMARK  126  A    between atoms: _310  and  _313
REMARK  127  A    between atoms: _313  and  _314
REMARK  128  A    between atoms: _317  and  _319
REMARK  129  A    between atoms: _319  and  _320
REMARK  130  A    between atoms: _319  and  _322
REMARK  131  A    between atoms: _322  and  _323
REMARK  132  A    between atoms: _326  and  _328
REMARK  133  A    between atoms: _328  and  _329
REMARK  134  A    between atoms: _328  and  _331
REMARK  135  A    between atoms: _331  and  _332
REMARK  136  A    between atoms: _335  and  _337
REMARK  137  A    between atoms: _337  and  _338
REMARK  138  A    between atoms: _337  and  _340
REMARK  139  A    between atoms: _340  and  _341
REMARK  140  A    between atoms: _344  and  _346
REMARK  141  A    between atoms: _346  and  _347
REMARK  142  A    between atoms: _346  and  _349
REMARK  143  A    between atoms: _349  and  _350
REMARK  144  A    between atoms: _353  and  _355
REMARK  145  A    between atoms: _355  and  _356
REMARK  146  A    between atoms: _358  and  _360
REMARK  147  A    between atoms: _360  and  _361
REMARK  148  A    between atoms: _364  and  _366
REMARK  149  A    between atoms: _366  and  _367
REMARK  150  A    between atoms: _366  and  _369
REMARK  151  A    between atoms: _369  and  _370
REMARK  152  A    between atoms: _373  and  _375
REMARK  153  A    between atoms: _375  and  _376
REMARK  154  A    between atoms: _375  and  _378
REMARK  155  A    between atoms: _378  and  _379
REMARK  156  A    between atoms: _382  and  _384
REMARK  157  A    between atoms: _384  and  _385
REMARK  158  A    between atoms: _384  and  _387
REMARK  159  A    between atoms: _387  and  _388
REMARK  160  A    between atoms: _391  and  _393
REMARK  161  A    between atoms: _393  and  _394
REMARK  162  A    between atoms: _393  and  _396
REMARK  163  A    between atoms: _399  and  _401
REMARK  164  A    between atoms: _401  and  _402
REMARK  165  A    between atoms: _401  and  _404
REMARK  166  A    between atoms: _404  and  _405
REMARK  167  A    between atoms: _405  and  _406
REMARK  168  A    between atoms: _406  and  _407
REMARK  169  A    between atoms: _407  and  _408
REMARK  170  A    between atoms: _412  and  _414
REMARK  171  A    between atoms: _414  and  _415
REMARK  172  A    between atoms: _414  and  _417
REMARK  173  A    between atoms: _417  and  _418
REMARK  174  A    between atoms: _418  and  _419
REMARK  175  A    between atoms: _421  and  _423
REMARK  176  A    between atoms: _423  and  _424
REMARK  177  A    between atoms: _423  and  _426
REMARK  178  A    between atoms: _426  and  _427
REMARK  179  A    between atoms: _430  and  _432
REMARK  180  A    between atoms: _432  and  _433
REMARK  181  A    between atoms: _435  and  _437
REMARK  182  A    between atoms: _437  and  _438
REMARK  183  A    between atoms: _440  and  _442
REMARK  184  A    between atoms: _442  and  _443
REMARK  185  A    between atoms: _442  and  _445
REMARK  186  A    between atoms: _445  and  _446
REMARK  187  A    between atoms: _449  and  _451
REMARK  188  A    between atoms: _451  and  _452
REMARK  189  A    between atoms: _454  and  _456
REMARK  190  A    between atoms: _456  and  _457
REMARK  191  A    between atoms: _459  and  _461
REMARK  192  A    between atoms: _461  and  _462
REMARK  193  A    between atoms: _461  and  _464
REMARK  194  A    between atoms: _464  and  _465
REMARK  195  A    between atoms: _471  and  _473
REMARK  196  A    between atoms: _473  and  _474
REMARK  197  A    between atoms: _473  and  _476
REMARK  198  A    between atoms: _476  and  _477
REMARK  199  A    between atoms: _480  and  _482
REMARK  200  A    between atoms: _482  and  _483
REMARK  201  A    between atoms: _482  and  _485
REMARK  202  A    between atoms: _488  and  _490
REMARK  203  A    between atoms: _490  and  _491
REMARK  204  A    between atoms: _490  and  _493
REMARK  205  A    between atoms: _493  and  _494
REMARK  206  A    between atoms: _497  and  _499
REMARK  207  A    between atoms: _499  and  _500
REMARK  208  A    between atoms: _499  and  _502
REMARK  209  A    between atoms: _502  and  _503
REMARK  210  A    between atoms: _507  and  _508
REMARK  211  A    between atoms: _513  and  _515
REMARK  212  A    between atoms: _515  and  _516
REMARK  213  A    between atoms: _515  and  _518
REMARK  214  A    between atoms: _518  and  _519
REMARK  215  A    between atoms: _522  and  _524
REMARK  216  A    between atoms: _524  and  _525
REMARK  217  A    between atoms: _524  and  _527
REMARK  218  A    between atoms: _527  and  _528
REMARK  219  A    between atoms: _533  and  _535
REMARK  220  A    between atoms: _535  and  _536
REMARK  221  A    between atoms: _535  and  _538
REMARK  222  A    between atoms: _541  and  _543
REMARK  223  A    between atoms: _543  and  _544
REMARK  224  A    between atoms: _543  and  _546
REMARK  225  A    between atoms: _546  and  _547
REMARK  226  A    between atoms: _550  and  _552
REMARK  227  A    between atoms: _552  and  _553
REMARK  228  A    between atoms: _555  and  _557
REMARK  229  A    between atoms: _557  and  _558
REMARK  230  A    between atoms: _557  and  _560
REMARK  231  A    between atoms: _560  and  _561
REMARK  232  A    between atoms: _561  and  _562
REMARK  233  A    between atoms: _562  and  _563
REMARK                            x       y       z     vdW  Elec       q    Type
REMARK                         _______ _______ _______ _____ _____    ______ ____
ROOT
ATOM      1  O   HOH     1      22.292  15.576   4.776  0.00  0.00    +0.000 OA
ENDROOT
TORSDOF 0
REMARK  Name = ../refined-set-2016/2xye/2xye_pocket.pdb
REMARK  233 active torsions:
REMARK  status: ('A' for Active; 'I' for Inactive)
REMARK    1  A    between atoms: _1  and  _3
REMARK    2  A    between atoms: _3  and  _4
REMARK    3  A    between atoms: _3  and  _6
REMARK    4  A    between atoms: _6  and  _7
REMARK    5  A    between atoms: _7  and  _8
REMARK    6  A    between atoms: _8  and  _9
REMARK    7  A    between atoms: _18  and  _20
REMARK    8  A    between atoms: _20  and  _21
REMARK    9  A    between atoms: _20  and  _23
REMARK   10  A    between atoms: _23  and  _24
REMARK   11  A    between atoms: _27  and  _29
REMARK   12  A    between atoms: _29  and  _30
REMARK   13  A    between atoms: _29  and  _32
REMARK   14  A    between atoms: _32  and  _33
REMARK   15  A    between atoms: _36  and  _38
REMARK   16  A    between atoms: _38  and  _39
REMARK   17  A    between atoms: _38  and  _41
REMARK   18  A    between atoms: _41  and  _42
REMARK   19  A    between atoms: _45  and  _47
REMARK   20  A    between atoms: _47  and  _48
REMARK   21  A    between atoms: _47  and  _50
REMARK   22  A    between atoms: _50  and  _51
REMARK   23  A    between atoms: _54  and  _56
REMARK   24  A    between atoms: _56  and  _57
REMARK   25  A    between atoms: _59  and  _61
REMARK   26  A    between atoms: _61  and  _62
REMARK   27  A    between atoms: _65  and  _67
REMARK   28  A    between atoms: _67  and  _68
REMARK   29  A    between atoms: _67  and  _70
REMARK   30  A    between atoms: _70  and  _71
REMARK   31  A    between atoms: _74  and  _76
REMARK   32  A    between atoms: _76  and  _77
REMARK   33  A    between atoms: _76  and  _79
REMARK   34  A    between atoms: _79  and  _80
REMARK   35  A    between atoms: _83  and  _85
REMARK   36  A    between atoms: _85  and  _86
REMARK   37  A    between atoms: _85  and  _88
REMARK   38  A    between atoms: _88  and  _89
REMARK   39  A    between atoms: _92  and  _94
REMARK   40  A    between atoms: _94  and  _95
REMARK   41  A    between atoms: _94  and  _97
REMARK   42  A    between atoms: _100  and  _102
REMARK   43  A    between atoms: _102  and  _103
REMARK   44  A    between atoms: _102  and  _105
REMARK   45  A    between atoms: _105  and  _106
REMARK   46  A    between atoms: _106  and  _107
REMARK   47  A    between atoms: _107  and  _108
REMARK   48  A    between atoms: _108  and  _109
REMARK   49  A    between atoms: _113  and  _115
REMARK   50  A    between atoms: _115  and  _116
REMARK   51  A    between atoms: _115  and  _118
REMARK   52  A    between atoms: _118  and  _119
REMARK   53  A    between atoms: _119  and  _120
REMARK   54  A    between atoms: _122  and  _124
REMARK   55  A    between atoms: _124  and  _125
REMARK   56  A    between atoms: _124  and  _127
REMARK   57  A    between atoms: _127  and  _128
REMARK   58  A    between atoms: _131  and  _133
REMARK   59  A    between atoms: _133  and  _134
REMARK   60  A    between atoms: _136  and  _138
REMARK   61  A    between atoms: _138  and  _139
REMARK   62  A    between atoms: _141  and  _143
REMARK   63  A    between atoms: _143  and  _144
REMARK   64  A    between atoms: _143  and  _146
REMARK   65  A    between atoms: _146  and  _147
REMARK   66  A    between atoms: _150  and  _152
REMARK   67  A    between atoms: _152  and  _153
REMARK   68  A    between atoms: _155  and  _157
REMARK   69  A    between atoms: _157  and  _158
REMARK   70  A    between atoms: _160  and  _162
REMARK   71  A    between atoms: _162  and  _163
REMARK   72  A    between atoms: _162  and  _165
REMARK   73  A    between atoms: _165  and  _166
REMARK   74  A    between atoms: _172  and  _174
REMARK   75  A    between atoms: _174  and  _175
REMARK   76  A    between atoms: _174  and  _177
REMARK   77  A    between atoms: _177  and  _178
REMARK   78  A    between atoms: _181  and  _183
REMARK   79  A    between atoms: _183  and  _184
REMARK   80  A    between atoms: _183  and  _186
REMARK   81  A    between atoms: _189  and  _191
REMARK   82  A    between atoms: _191  and  _192
REMARK   83  A    between atoms: _191  and  _194
REMARK   84  A    between atoms: _194  and  _195
REMARK   85  A    between atoms: _198  and  _200
REMARK   86  A    between atoms: _200  and  _201
REMARK   87  A    between atoms: _200  and  _203
REMARK   88  A    between atoms: _203  and  _204
REMARK   89  A    between atoms: _208  and  _209
REMARK   90  A    between atoms: _214  and  _216
REMARK   91  A    between atoms: _216  and  _217
REMARK   92  A    between atoms: _216  and  _219
REMARK   93  A    between atoms: _219  and  _220
REMARK   94  A    between atoms: _223  and  _225
REMARK   95  A    between atoms: _225  and  _226
REMARK   96  A    between atoms: _225  and  _228
REMARK   97  A    between atoms: _228  and  _229
REMARK   98  A    between atoms: _234  and  _236
REMARK   99  A    between atoms: _236  and  _237
REMARK  100  A    between atoms: _236  and  _239
REMARK  101  A    between atoms: _242  and  _244
REMARK  102  A    between atoms: _244  and  _245
REMARK  103  A    between atoms: _244  and  _247
REMARK  104  A    between atoms: _247  and  _248
REMARK  105  A    between atoms: _251  and  _253
REMARK  106  A    between atoms: _253  and  _254
REMARK  107  A    between atoms: _256  and  _258
REMARK  108  A    between atoms: _258  and  _259
REMARK  109  A    between atoms: _258  and  _261
REMARK  110  A    between atoms: _261  and  _262
REMARK  111  A    between atoms: _262  and  _263
REMARK  112  A    between atoms: _263  and  _264
REMARK  113  A    between atoms: _273  and  _275
REMARK  114  A    between atoms: _275  and  _276
REMARK  115  A    between atoms: _275  and  _278
REMARK  116  A    between atoms: _278  and  _279
REMARK  117  A    between atoms: _284  and  _286
REMARK  118  A    between atoms: _286  and  _287
REMARK  119  A    between atoms: _286  and  _289
REMARK  120  A    between atoms: _289  and  _290
REMARK  121  A    between atoms: _290  and  _291
REMARK  122  A    between atoms: _291  and  _292
REMARK  123  A    between atoms: _302  and  _303
REMARK  124  A    between atoms: _308  and  _310
REMARK  125  A    between atoms: _310  and  _311
REMARK  126  A    between atoms: _310  and  _313
REMARK  127  A    between atoms: _313  and  _314
REMARK  128  A    between atoms: _317  and  _319
REMARK  129  A    between atoms: _319  and  _320
REMARK  130  A    between atoms: _319  and  _322
REMARK  131  A    between atoms: _322  and  _323
REMARK  132  A    between atoms: _326  and  _328
REMARK  133  A    between atoms: _328  and  _329
REMARK  134  A    between atoms: _328  and  _331
REMARK  135  A    between atoms: _331  and  _332
REMARK  136  A    between atoms: _335  and  _337
REMARK  137  A    between atoms: _337  and  _338
REMARK  138  A    between atoms: _337  and  _340
REMARK  139  A    between atoms: _340  and  _341
REMARK  140  A    between atoms: _344  and  _346
REMARK  141  A    between atoms: _346  and  _347
REMARK  142  A    between atoms: _346  and  _349
REMARK  143  A    between atoms: _349  and  _350
REMARK  144  A    between atoms: _353  and  _355
REMARK  145  A    between atoms: _355  and  _356
REMARK  146  A    between atoms: _358  and  _360
REMARK  147  A    between atoms: _360  and  _361
REMARK  148  A    between atoms: _364  and  _366
REMARK  149  A    between atoms: _366  and  _367
REMARK  150  A    between atoms: _366  and  _369
REMARK  151  A    between atoms: _369  and  _370
REMARK  152  A    between atoms: _373  and  _375
REMARK  153  A    between atoms: _375  and  _376
REMARK  154  A    between atoms: _375  and  _378
REMARK  155  A    between atoms: _378  and  _379
REMARK  156  A    between atoms: _382  and  _384
REMARK  157  A    between atoms: _384  and  _385
REMARK  158  A    between atoms: _384  and  _387
REMARK  159  A    between atoms: _387  and  _388
REMARK  160  A    between atoms: _391  and  _393
REMARK  161  A    between atoms: _393  and  _394
REMARK  162  A    between atoms: _393  and  _396
REMARK  163  A    between atoms: _399  and  _401
REMARK  164  A    between atoms: _401  and  _402
REMARK  165  A    between atoms: _401  and  _404
REMARK  166  A    between atoms: _404  and  _405
REMARK  167  A    between atoms: _405  and  _406
REMARK  168  A    between atoms: _406  and  _407
REMARK  169  A    between atoms: _407  and  _408
REMARK  170  A    between atoms: _412  and  _414
REMARK  171  A    between atoms: _414  and  _415
REMARK  172  A    between atoms: _414  and  _417
REMARK  173  A    between atoms: _417  and  _418
REMARK  174  A    between atoms: _418  and  _419
REMARK  175  A    between atoms: _421  and  _423
REMARK  176  A    between atoms: _423  and  _424
REMARK  177  A    between atoms: _423  and  _426
REMARK  178  A    between atoms: _426  and  _427
REMARK  179  A    between atoms: _430  and  _432
REMARK  180  A    between atoms: _432  and  _433
REMARK  181  A    between atoms: _435  and  _437
REMARK  182  A    between atoms: _437  and  _438
REMARK  183  A    between atoms: _440  and  _442
REMARK  184  A    between atoms: _442  and  _443
REMARK  185  A    between atoms: _442  and  _445
REMARK  186  A    between atoms: _445  and  _446
REMARK  187  A    between atoms: _449  and  _451
REMARK  188  A    between atoms: _451  and  _452
REMARK  189  A    between atoms: _454  and  _456
REMARK  190  A    between atoms: _456  and  _457
REMARK  191  A    between atoms: _459  and  _461
REMARK  192  A    between atoms: _461  and  _462
REMARK  193  A    between atoms: _461  and  _464
REMARK  194  A    between atoms: _464  and  _465
REMARK  195  A    between atoms: _471  and  _473
REMARK  196  A    between atoms: _473  and  _474
REMARK  197  A    between atoms: _473  and  _476
REMARK  198  A    between atoms: _476  and  _477
REMARK  199  A    between atoms: _480  and  _482
REMARK  200  A    between atoms: _482  and  _483
REMARK  201  A    between atoms: _482  and  _485
REMARK  202  A    between atoms: _488  and  _490
REMARK  203  A    between atoms: _490  and  _491
REMARK  204  A    between atoms: _490  and  _493
REMARK  205  A    between atoms: _493  and  _494
REMARK  206  A    between atoms: _497  and  _499
REMARK  207  A    between atoms: _499  and  _500
REMARK  208  A    between atoms: _499  and  _502
REMARK  209  A    between atoms: _502  and  _503
REMARK  210  A    between atoms: _507  and  _508
REMARK  211  A    between atoms: _513  and  _515
REMARK  212  A    between atoms: _515  and  _516
REMARK  213  A    between atoms: _515  and  _518
REMARK  214  A    between atoms: _518  and  _519
REMARK  215  A    between atoms: _522  and  _524
REMARK  216  A    between atoms: _524  and  _525
REMARK  217  A    between atoms: _524  and  _527
REMARK  218  A    between atoms: _527  and  _528
REMARK  219  A    between atoms: _533  and  _535
REMARK  220  A    between atoms: _535  and  _536
REMARK  221  A    between atoms: _535  and  _538
REMARK  222  A    between atoms: _541  and  _543
REMARK  223  A    between atoms: _543  and  _544
REMARK  224  A    between atoms: _543  and  _546
REMARK  225  A    between atoms: _546  and  _547
REMARK  226  A    between atoms: _550  and  _552
REMARK  227  A    between atoms: _552  and  _553
REMARK  228  A    between atoms: _555  and  _557
REMARK  229  A    between atoms: _557  and  _558
REMARK  230  A    between atoms: _557  and  _560
REMARK  231  A    between atoms: _560  and  _561
REMARK  232  A    between atoms: _561  and  _562
REMARK  233  A    between atoms: _562  and  _563
REMARK                            x       y       z     vdW  Elec       q    Type
REMARK                         _______ _______ _______ _____ _____    ______ ____
ROOT
ATOM      1  O   HOH     1      20.733  21.886   6.358  0.00  0.00    +0.000 OA
ENDROOT
TORSDOF 0
REMARK  Name = ../refined-set-2016/2xye/2xye_pocket.pdb
REMARK  233 active torsions:
REMARK  status: ('A' for Active; 'I' for Inactive)
REMARK    1  A    between atoms: _1  and  _3
REMARK    2  A    between atoms: _3  and  _4
REMARK    3  A    between atoms: _3  and  _6
REMARK    4  A    between atoms: _6  and  _7
REMARK    5  A    between atoms: _7  and  _8
REMARK    6  A    between atoms: _8  and  _9
REMARK    7  A    between atoms: _18  and  _20
REMARK    8  A    between atoms: _20  and  _21
REMARK    9  A    between atoms: _20  and  _23
REMARK   10  A    between atoms: _23  and  _24
REMARK   11  A    between atoms: _27  and  _29
REMARK   12  A    between atoms: _29  and  _30
REMARK   13  A    between atoms: _29  and  _32
REMARK   14  A    between atoms: _32  and  _33
REMARK   15  A    between atoms: _36  and  _38
REMARK   16  A    between atoms: _38  and  _39
REMARK   17  A    between atoms: _38  and  _41
REMARK   18  A    between atoms: _41  and  _42
REMARK   19  A    between atoms: _45  and  _47
REMARK   20  A    between atoms: _47  and  _48
REMARK   21  A    between atoms: _47  and  _50
REMARK   22  A    between atoms: _50  and  _51
REMARK   23  A    between atoms: _54  and  _56
REMARK   24  A    between atoms: _56  and  _57
REMARK   25  A    between atoms: _59  and  _61
REMARK   26  A    between atoms: _61  and  _62
REMARK   27  A    between atoms: _65  and  _67
REMARK   28  A    between atoms: _67  and  _68
REMARK   29  A    between atoms: _67  and  _70
REMARK   30  A    between atoms: _70  and  _71
REMARK   31  A    between atoms: _74  and  _76
REMARK   32  A    between atoms: _76  and  _77
REMARK   33  A    between atoms: _76  and  _79
REMARK   34  A    between atoms: _79  and  _80
REMARK   35  A    between atoms: _83  and  _85
REMARK   36  A    between atoms: _85  and  _86
REMARK   37  A    between atoms: _85  and  _88
REMARK   38  A    between atoms: _88  and  _89
REMARK   39  A    between atoms: _92  and  _94
REMARK   40  A    between atoms: _94  and  _95
REMARK   41  A    between atoms: _94  and  _97
REMARK   42  A    between atoms: _100  and  _102
REMARK   43  A    between atoms: _102  and  _103
REMARK   44  A    between atoms: _102  and  _105
REMARK   45  A    between atoms: _105  and  _106
REMARK   46  A    between atoms: _106  and  _107
REMARK   47  A    between atoms: _107  and  _108
REMARK   48  A    between atoms: _108  and  _109
REMARK   49  A    between atoms: _113  and  _115
REMARK   50  A    between atoms: _115  and  _116
REMARK   51  A    between atoms: _115  and  _118
REMARK   52  A    between atoms: _118  and  _119
REMARK   53  A    between atoms: _119  and  _120
REMARK   54  A    between atoms: _122  and  _124
REMARK   55  A    between atoms: _124  and  _125
REMARK   56  A    between atoms: _124  and  _127
REMARK   57  A    between atoms: _127  and  _128
REMARK   58  A    between atoms: _131  and  _133
REMARK   59  A    between atoms: _133  and  _134
REMARK   60  A    between atoms: _136  and  _138
REMARK   61  A    between atoms: _138  and  _139
REMARK   62  A    between atoms: _141  and  _143
REMARK   63  A    between atoms: _143  and  _144
REMARK   64  A    between atoms: _143  and  _146
REMARK   65  A    between atoms: _146  and  _147
REMARK   66  A    between atoms: _150  and  _152
REMARK   67  A    between atoms: _152  and  _153
REMARK   68  A    between atoms: _155  and  _157
REMARK   69  A    between atoms: _157  and  _158
REMARK   70  A    between atoms: _160  and  _162
REMARK   71  A    between atoms: _162  and  _163
REMARK   72  A    between atoms: _162  and  _165
REMARK   73  A    between atoms: _165  and  _166
REMARK   74  A    between atoms: _172  and  _174
REMARK   75  A    between atoms: _174  and  _175
REMARK   76  A    between atoms: _174  and  _177
REMARK   77  A    between atoms: _177  and  _178
REMARK   78  A    between atoms: _181  and  _183
REMARK   79  A    between atoms: _183  and  _184
REMARK   80  A    between atoms: _183  and  _186
REMARK   81  A    between atoms: _189  and  _191
REMARK   82  A    between atoms: _191  and  _192
REMARK   83  A    between atoms: _191  and  _194
REMARK   84  A    between atoms: _194  and  _195
REMARK   85  A    between atoms: _198  and  _200
REMARK   86  A    between atoms: _200  and  _201
REMARK   87  A    between atoms: _200  and  _203
REMARK   88  A    between atoms: _203  and  _204
REMARK   89  A    between atoms: _208  and  _209
REMARK   90  A    between atoms: _214  and  _216
REMARK   91  A    between atoms: _216  and  _217
REMARK   92  A    between atoms: _216  and  _219
REMARK   93  A    between atoms: _219  and  _220
REMARK   94  A    between atoms: _223  and  _225
REMARK   95  A    between atoms: _225  and  _226
REMARK   96  A    between atoms: _225  and  _228
REMARK   97  A    between atoms: _228  and  _229
REMARK   98  A    between atoms: _234  and  _236
REMARK   99  A    between atoms: _236  and  _237
REMARK  100  A    between atoms: _236  and  _239
REMARK  101  A    between atoms: _242  and  _244
REMARK  102  A    between atoms: _244  and  _245
REMARK  103  A    between atoms: _244  and  _247
REMARK  104  A    between atoms: _247  and  _248
REMARK  105  A    between atoms: _251  and  _253
REMARK  106  A    between atoms: _253  and  _254
REMARK  107  A    between atoms: _256  and  _258
REMARK  108  A    between atoms: _258  and  _259
REMARK  109  A    between atoms: _258  and  _261
REMARK  110  A    between atoms: _261  and  _262
REMARK  111  A    between atoms: _262  and  _263
REMARK  112  A    between atoms: _263  and  _264
REMARK  113  A    between atoms: _273  and  _275
REMARK  114  A    between atoms: _275  and  _276
REMARK  115  A    between atoms: _275  and  _278
REMARK  116  A    between atoms: _278  and  _279
REMARK  117  A    between atoms: _284  and  _286
REMARK  118  A    between atoms: _286  and  _287
REMARK  119  A    between atoms: _286  and  _289
REMARK  120  A    between atoms: _289  and  _290
REMARK  121  A    between atoms: _290  and  _291
REMARK  122  A    between atoms: _291  and  _292
REMARK  123  A    between atoms: _302  and  _303
REMARK  124  A    between atoms: _308  and  _310
REMARK  125  A    between atoms: _310  and  _311
REMARK  126  A    between atoms: _310  and  _313
REMARK  127  A    between atoms: _313  and  _314
REMARK  128  A    between atoms: _317  and  _319
REMARK  129  A    between atoms: _319  and  _320
REMARK  130  A    between atoms: _319  and  _322
REMARK  131  A    between atoms: _322  and  _323
REMARK  132  A    between atoms: _326  and  _328
REMARK  133  A    between atoms: _328  and  _329
REMARK  134  A    between atoms: _328  and  _331
REMARK  135  A    between atoms: _331  and  _332
REMARK  136  A    between atoms: _335  and  _337
REMARK  137  A    between atoms: _337  and  _338
REMARK  138  A    between atoms: _337  and  _340
REMARK  139  A    between atoms: _340  and  _341
REMARK  140  A    between atoms: _344  and  _346
REMARK  141  A    between atoms: _346  and  _347
REMARK  142  A    between atoms: _346  and  _349
REMARK  143  A    between atoms: _349  and  _350
REMARK  144  A    between atoms: _353  and  _355
REMARK  145  A    between atoms: _355  and  _356
REMARK  146  A    between atoms: _358  and  _360
REMARK  147  A    between atoms: _360  and  _361
REMARK  148  A    between atoms: _364  and  _366
REMARK  149  A    between atoms: _366  and  _367
REMARK  150  A    between atoms: _366  and  _369
REMARK  151  A    between atoms: _369  and  _370
REMARK  152  A    between atoms: _373  and  _375
REMARK  153  A    between atoms: _375  and  _376
REMARK  154  A    between atoms: _375  and  _378
REMARK  155  A    between atoms: _378  and  _379
REMARK  156  A    between atoms: _382  and  _384
REMARK  157  A    between atoms: _384  and  _385
REMARK  158  A    between atoms: _384  and  _387
REMARK  159  A    between atoms: _387  and  _388
REMARK  160  A    between atoms: _391  and  _393
REMARK  161  A    between atoms: _393  and  _394
REMARK  162  A    between atoms: _393  and  _396
REMARK  163  A    between atoms: _399  and  _401
REMARK  164  A    between atoms: _401  and  _402
REMARK  165  A    between atoms: _401  and  _404
REMARK  166  A    between atoms: _404  and  _405
REMARK  167  A    between atoms: _405  and  _406
REMARK  168  A    between atoms: _406  and  _407
REMARK  169  A    between atoms: _407  and  _408
REMARK  170  A    between atoms: _412  and  _414
REMARK  171  A    between atoms: _414  and  _415
REMARK  172  A    between atoms: _414  and  _417
REMARK  173  A    between atoms: _417  and  _418
REMARK  174  A    between atoms: _418  and  _419
REMARK  175  A    between atoms: _421  and  _423
REMARK  176  A    between atoms: _423  and  _424
REMARK  177  A    between atoms: _423  and  _426
REMARK  178  A    between atoms: _426  and  _427
REMARK  179  A    between atoms: _430  and  _432
REMARK  180  A    between atoms: _432  and  _433
REMARK  181  A    between atoms: _435  and  _437
REMARK  182  A    between atoms: _437  and  _438
REMARK  183  A    between atoms: _440  and  _442
REMARK  184  A    between atoms: _442  and  _443
REMARK  185  A    between atoms: _442  and  _445
REMARK  186  A    between atoms: _445  and  _446
REMARK  187  A    between atoms: _449  and  _451
REMARK  188  A    between atoms: _451  and  _452
REMARK  189  A    between atoms: _454  and  _456
REMARK  190  A    between atoms: _456  and  _457
REMARK  191  A    between atoms: _459  and  _461
REMARK  192  A    between atoms: _461  and  _462
REMARK  193  A    between atoms: _461  and  _464
REMARK  194  A    between atoms: _464  and  _465
REMARK  195  A    between atoms: _471  and  _473
REMARK  196  A    between atoms: _473  and  _474
REMARK  197  A    between atoms: _473  and  _476
REMARK  198  A    between atoms: _476  and  _477
REMARK  199  A    between atoms: _480  and  _482
REMARK  200  A    between atoms: _482  and  _483
REMARK  201  A    between atoms: _482  and  _485
REMARK  202  A    between atoms: _488  and  _490
REMARK  203  A    between atoms: _490  and  _491
REMARK  204  A    between atoms: _490  and  _493
REMARK  205  A    between atoms: _493  and  _494
REMARK  206  A    between atoms: _497  and  _499
REMARK  207  A    between atoms: _499  and  _500
REMARK  208  A    between atoms: _499  and  _502
REMARK  209  A    between atoms: _502  and  _503
REMARK  210  A    between atoms: _507  and  _508
REMARK  211  A    between atoms: _513  and  _515
REMARK  212  A    between atoms: _515  and  _516
REMARK  213  A    between atoms: _515  and  _518
REMARK  214  A    between atoms: _518  and  _519
REMARK  215  A    between atoms: _522  and  _524
REMARK  216  A    between atoms: _524  and  _525
REMARK  217  A    between atoms: _524  and  _527
REMARK  218  A    between atoms: _527  and  _528
REMARK  219  A    between atoms: _533  and  _535
REMARK  220  A    between atoms: _535  and  _536
REMARK  221  A    between atoms: _535  and  _538
REMARK  222  A    between atoms: _541  and  _543
REMARK  223  A    between atoms: _543  and  _544
REMARK  224  A    between atoms: _543  and  _546
REMARK  225  A    between atoms: _546  and  _547
REMARK  226  A    between atoms: _550  and  _552
REMARK  227  A    between atoms: _552  and  _553
REMARK  228  A    between atoms: _555  and  _557
REMARK  229  A    between atoms: _557  and  _558
REMARK  230  A    between atoms: _557  and  _560
REMARK  231  A    between atoms: _560  and  _561
REMARK  232  A    between atoms: _561  and  _562
REMARK  233  A    between atoms: _562  and  _563
REMARK                            x       y       z     vdW  Elec       q    Type
REMARK                         _______ _______ _______ _____ _____    ______ ____
ROOT
ATOM      1  O   HOH     1      24.760  19.249   0.412  0.00  0.00    +0.000 OA
ENDROOT
TORSDOF 0
REMARK  Name = ../refined-set-2016/2xye/2xye_pocket.pdb
REMARK  233 active torsions:
REMARK  status: ('A' for Active; 'I' for Inactive)
REMARK    1  A    between atoms: _1  and  _3
REMARK    2  A    between atoms: _3  and  _4
REMARK    3  A    between atoms: _3  and  _6
REMARK    4  A    between atoms: _6  and  _7
REMARK    5  A    between atoms: _7  and  _8
REMARK    6  A    between atoms: _8  and  _9
REMARK    7  A    between atoms: _18  and  _20
REMARK    8  A    between atoms: _20  and  _21
REMARK    9  A    between atoms: _20  and  _23
REMARK   10  A    between atoms: _23  and  _24
REMARK   11  A    between atoms: _27  and  _29
REMARK   12  A    between atoms: _29  and  _30
REMARK   13  A    between atoms: _29  and  _32
REMARK   14  A    between atoms: _32  and  _33
REMARK   15  A    between atoms: _36  and  _38
REMARK   16  A    between atoms: _38  and  _39
REMARK   17  A    between atoms: _38  and  _41
REMARK   18  A    between atoms: _41  and  _42
REMARK   19  A    between atoms: _45  and  _47
REMARK   20  A    between atoms: _47  and  _48
REMARK   21  A    between atoms: _47  and  _50
REMARK   22  A    between atoms: _50  and  _51
REMARK   23  A    between atoms: _54  and  _56
REMARK   24  A    between atoms: _56  and  _57
REMARK   25  A    between atoms: _59  and  _61
REMARK   26  A    between atoms: _61  and  _62
REMARK   27  A    between atoms: _65  and  _67
REMARK   28  A    between atoms: _67  and  _68
REMARK   29  A    between atoms: _67  and  _70
REMARK   30  A    between atoms: _70  and  _71
REMARK   31  A    between atoms: _74  and  _76
REMARK   32  A    between atoms: _76  and  _77
REMARK   33  A    between atoms: _76  and  _79
REMARK   34  A    between atoms: _79  and  _80
REMARK   35  A    between atoms: _83  and  _85
REMARK   36  A    between atoms: _85  and  _86
REMARK   37  A    between atoms: _85  and  _88
REMARK   38  A    between atoms: _88  and  _89
REMARK   39  A    between atoms: _92  and  _94
REMARK   40  A    between atoms: _94  and  _95
REMARK   41  A    between atoms: _94  and  _97
REMARK   42  A    between atoms: _100  and  _102
REMARK   43  A    between atoms: _102  and  _103
REMARK   44  A    between atoms: _102  and  _105
REMARK   45  A    between atoms: _105  and  _106
REMARK   46  A    between atoms: _106  and  _107
REMARK   47  A    between atoms: _107  and  _108
REMARK   48  A    between atoms: _108  and  _109
REMARK   49  A    between atoms: _113  and  _115
REMARK   50  A    between atoms: _115  and  _116
REMARK   51  A    between atoms: _115  and  _118
REMARK   52  A    between atoms: _118  and  _119
REMARK   53  A    between atoms: _119  and  _120
REMARK   54  A    between atoms: _122  and  _124
REMARK   55  A    between atoms: _124  and  _125
REMARK   56  A    between atoms: _124  and  _127
REMARK   57  A    between atoms: _127  and  _128
REMARK   58  A    between atoms: _131  and  _133
REMARK   59  A    between atoms: _133  and  _134
REMARK   60  A    between atoms: _136  and  _138
REMARK   61  A    between atoms: _138  and  _139
REMARK   62  A    between atoms: _141  and  _143
REMARK   63  A    between atoms: _143  and  _144
REMARK   64  A    between atoms: _143  and  _146
REMARK   65  A    between atoms: _146  and  _147
REMARK   66  A    between atoms: _150  and  _152
REMARK   67  A    between atoms: _152  and  _153
REMARK   68  A    between atoms: _155  and  _157
REMARK   69  A    between atoms: _157  and  _158
REMARK   70  A    between atoms: _160  and  _162
REMARK   71  A    between atoms: _162  and  _163
REMARK   72  A    between atoms: _162  and  _165
REMARK   73  A    between atoms: _165  and  _166
REMARK   74  A    between atoms: _172  and  _174
REMARK   75  A    between atoms: _174  and  _175
REMARK   76  A    between atoms: _174  and  _177
REMARK   77  A    between atoms: _177  and  _178
REMARK   78  A    between atoms: _181  and  _183
REMARK   79  A    between atoms: _183  and  _184
REMARK   80  A    between atoms: _183  and  _186
REMARK   81  A    between atoms: _189  and  _191
REMARK   82  A    between atoms: _191  and  _192
REMARK   83  A    between atoms: _191  and  _194
REMARK   84  A    between atoms: _194  and  _195
REMARK   85  A    between atoms: _198  and  _200
REMARK   86  A    between atoms: _200  and  _201
REMARK   87  A    between atoms: _200  and  _203
REMARK   88  A    between atoms: _203  and  _204
REMARK   89  A    between atoms: _208  and  _209
REMARK   90  A    between atoms: _214  and  _216
REMARK   91  A    between atoms: _216  and  _217
REMARK   92  A    between atoms: _216  and  _219
REMARK   93  A    between atoms: _219  and  _220
REMARK   94  A    between atoms: _223  and  _225
REMARK   95  A    between atoms: _225  and  _226
REMARK   96  A    between atoms: _225  and  _228
REMARK   97  A    between atoms: _228  and  _229
REMARK   98  A    between atoms: _234  and  _236
REMARK   99  A    between atoms: _236  and  _237
REMARK  100  A    between atoms: _236  and  _239
REMARK  101  A    between atoms: _242  and  _244
REMARK  102  A    between atoms: _244  and  _245
REMARK  103  A    between atoms: _244  and  _247
REMARK  104  A    between atoms: _247  and  _248
REMARK  105  A    between atoms: _251  and  _253
REMARK  106  A    between atoms: _253  and  _254
REMARK  107  A    between atoms: _256  and  _258
REMARK  108  A    between atoms: _258  and  _259
REMARK  109  A    between atoms: _258  and  _261
REMARK  110  A    between atoms: _261  and  _262
REMARK  111  A    between atoms: _262  and  _263
REMARK  112  A    between atoms: _263  and  _264
REMARK  113  A    between atoms: _273  and  _275
REMARK  114  A    between atoms: _275  and  _276
REMARK  115  A    between atoms: _275  and  _278
REMARK  116  A    between atoms: _278  and  _279
REMARK  117  A    between atoms: _284  and  _286
REMARK  118  A    between atoms: _286  and  _287
REMARK  119  A    between atoms: _286  and  _289
REMARK  120  A    between atoms: _289  and  _290
REMARK  121  A    between atoms: _290  and  _291
REMARK  122  A    between atoms: _291  and  _292
REMARK  123  A    between atoms: _302  and  _303
REMARK  124  A    between atoms: _308  and  _310
REMARK  125  A    between atoms: _310  and  _311
REMARK  126  A    between atoms: _310  and  _313
REMARK  127  A    between atoms: _313  and  _314
REMARK  128  A    between atoms: _317  and  _319
REMARK  129  A    between atoms: _319  and  _320
REMARK  130  A    between atoms: _319  and  _322
REMARK  131  A    between atoms: _322  and  _323
REMARK  132  A    between atoms: _326  and  _328
REMARK  133  A    between atoms: _328  and  _329
REMARK  134  A    between atoms: _328  and  _331
REMARK  135  A    between atoms: _331  and  _332
REMARK  136  A    between atoms: _335  and  _337
REMARK  137  A    between atoms: _337  and  _338
REMARK  138  A    between atoms: _337  and  _340
REMARK  139  A    between atoms: _340  and  _341
REMARK  140  A    between atoms: _344  and  _346
REMARK  141  A    between atoms: _346  and  _347
REMARK  142  A    between atoms: _346  and  _349
REMARK  143  A    between atoms: _349  and  _350
REMARK  144  A    between atoms: _353  and  _355
REMARK  145  A    between atoms: _355  and  _356
REMARK  146  A    between atoms: _358  and  _360
REMARK  147  A    between atoms: _360  and  _361
REMARK  148  A    between atoms: _364  and  _366
REMARK  149  A    between atoms: _366  and  _367
REMARK  150  A    between atoms: _366  and  _369
REMARK  151  A    between atoms: _369  and  _370
REMARK  152  A    between atoms: _373  and  _375
REMARK  153  A    between atoms: _375  and  _376
REMARK  154  A    between atoms: _375  and  _378
REMARK  155  A    between atoms: _378  and  _379
REMARK  156  A    between atoms: _382  and  _384
REMARK  157  A    between atoms: _384  and  _385
REMARK  158  A    between atoms: _384  and  _387
REMARK  159  A    between atoms: _387  and  _388
REMARK  160  A    between atoms: _391  and  _393
REMARK  161  A    between atoms: _393  and  _394
REMARK  162  A    between atoms: _393  and  _396
REMARK  163  A    between atoms: _399  and  _401
REMARK  164  A    between atoms: _401  and  _402
REMARK  165  A    between atoms: _401  and  _404
REMARK  166  A    between atoms: _404  and  _405
REMARK  167  A    between atoms: _405  and  _406
REMARK  168  A    between atoms: _406  and  _407
REMARK  169  A    between atoms: _407  and  _408
REMARK  170  A    between atoms: _412  and  _414
REMARK  171  A    between atoms: _414  and  _415
REMARK  172  A    between atoms: _414  and  _417
REMARK  173  A    between atoms: _417  and  _418
REMARK  174  A    between atoms: _418  and  _419
REMARK  175  A    between atoms: _421  and  _423
REMARK  176  A    between atoms: _423  and  _424
REMARK  177  A    between atoms: _423  and  _426
REMARK  178  A    between atoms: _426  and  _427
REMARK  179  A    between atoms: _430  and  _432
REMARK  180  A    between atoms: _432  and  _433
REMARK  181  A    between atoms: _435  and  _437
REMARK  182  A    between atoms: _437  and  _438
REMARK  183  A    between atoms: _440  and  _442
REMARK  184  A    between atoms: _442  and  _443
REMARK  185  A    between atoms: _442  and  _445
REMARK  186  A    between atoms: _445  and  _446
REMARK  187  A    between atoms: _449  and  _451
REMARK  188  A    between atoms: _451  and  _452
REMARK  189  A    between atoms: _454  and  _456
REMARK  190  A    between atoms: _456  and  _457
REMARK  191  A    between atoms: _459  and  _461
REMARK  192  A    between atoms: _461  and  _462
REMARK  193  A    between atoms: _461  and  _464
REMARK  194  A    between atoms: _464  and  _465
REMARK  195  A    between atoms: _471  and  _473
REMARK  196  A    between atoms: _473  and  _474
REMARK  197  A    between atoms: _473  and  _476
REMARK  198  A    between atoms: _476  and  _477
REMARK  199  A    between atoms: _480  and  _482
REMARK  200  A    between atoms: _482  and  _483
REMARK  201  A    between atoms: _482  and  _485
REMARK  202  A    between atoms: _488  and  _490
REMARK  203  A    between atoms: _490  and  _491
REMARK  204  A    between atoms: _490  and  _493
REMARK  205  A    between atoms: _493  and  _494
REMARK  206  A    between atoms: _497  and  _499
REMARK  207  A    between atoms: _499  and  _500
REMARK  208  A    between atoms: _499  and  _502
REMARK  209  A    between atoms: _502  and  _503
REMARK  210  A    between atoms: _507  and  _508
REMARK  211  A    between atoms: _513  and  _515
REMARK  212  A    between atoms: _515  and  _516
REMARK  213  A    between atoms: _515  and  _518
REMARK  214  A    between atoms: _518  and  _519
REMARK  215  A    between atoms: _522  and  _524
REMARK  216  A    between atoms: _524  and  _525
REMARK  217  A    between atoms: _524  and  _527
REMARK  218  A    between atoms: _527  and  _528
REMARK  219  A    between atoms: _533  and  _535
REMARK  220  A    between atoms: _535  and  _536
REMARK  221  A    between atoms: _535  and  _538
REMARK  222  A    between atoms: _541  and  _543
REMARK  223  A    between atoms: _543  and  _544
REMARK  224  A    between atoms: _543  and  _546
REMARK  225  A    between atoms: _546  and  _547
REMARK  226  A    between atoms: _550  and  _552
REMARK  227  A    between atoms: _552  and  _553
REMARK  228  A    between atoms: _555  and  _557
REMARK  229  A    between atoms: _557  and  _558
REMARK  230  A    between atoms: _557  and  _560
REMARK  231  A    between atoms: _560  and  _561
REMARK  232  A    between atoms: _561  and  _562
REMARK  233  A    between atoms: _562  and  _563
REMARK                            x       y       z     vdW  Elec       q    Type
REMARK                         _______ _______ _______ _____ _____    ______ ____
ROOT
ATOM      1  O   HOH     1      23.452  15.101   1.745  0.00  0.00    +0.000 OA
ENDROOT
TORSDOF 0
REMARK  Name = ../refined-set-2016/2xye/2xye_pocket.pdb
REMARK  233 active torsions:
REMARK  status: ('A' for Active; 'I' for Inactive)
REMARK    1  A    between atoms: _1  and  _3
REMARK    2  A    between atoms: _3  and  _4
REMARK    3  A    between atoms: _3  and  _6
REMARK    4  A    between atoms: _6  and  _7
REMARK    5  A    between atoms: _7  and  _8
REMARK    6  A    between atoms: _8  and  _9
REMARK    7  A    between atoms: _18  and  _20
REMARK    8  A    between atoms: _20  and  _21
REMARK    9  A    between atoms: _20  and  _23
REMARK   10  A    between atoms: _23  and  _24
REMARK   11  A    between atoms: _27  and  _29
REMARK   12  A    between atoms: _29  and  _30
REMARK   13  A    between atoms: _29  and  _32
REMARK   14  A    between atoms: _32  and  _33
REMARK   15  A    between atoms: _36  and  _38
REMARK   16  A    between atoms: _38  and  _39
REMARK   17  A    between atoms: _38  and  _41
REMARK   18  A    between atoms: _41  and  _42
REMARK   19  A    between atoms: _45  and  _47
REMARK   20  A    between atoms: _47  and  _48
REMARK   21  A    between atoms: _47  and  _50
REMARK   22  A    between atoms: _50  and  _51
REMARK   23  A    between atoms: _54  and  _56
REMARK   24  A    between atoms: _56  and  _57
REMARK   25  A    between atoms: _59  and  _61
REMARK   26  A    between atoms: _61  and  _62
REMARK   27  A    between atoms: _65  and  _67
REMARK   28  A    between atoms: _67  and  _68
REMARK   29  A    between atoms: _67  and  _70
REMARK   30  A    between atoms: _70  and  _71
REMARK   31  A    between atoms: _74  and  _76
REMARK   32  A    between atoms: _76  and  _77
REMARK   33  A    between atoms: _76  and  _79
REMARK   34  A    between atoms: _79  and  _80
REMARK   35  A    between atoms: _83  and  _85
REMARK   36  A    between atoms: _85  and  _86
REMARK   37  A    between atoms: _85  and  _88
REMARK   38  A    between atoms: _88  and  _89
REMARK   39  A    between atoms: _92  and  _94
REMARK   40  A    between atoms: _94  and  _95
REMARK   41  A    between atoms: _94  and  _97
REMARK   42  A    between atoms: _100  and  _102
REMARK   43  A    between atoms: _102  and  _103
REMARK   44  A    between atoms: _102  and  _105
REMARK   45  A    between atoms: _105  and  _106
REMARK   46  A    between atoms: _106  and  _107
REMARK   47  A    between atoms: _107  and  _108
REMARK   48  A    between atoms: _108  and  _109
REMARK   49  A    between atoms: _113  and  _115
REMARK   50  A    between atoms: _115  and  _116
REMARK   51  A    between atoms: _115  and  _118
REMARK   52  A    between atoms: _118  and  _119
REMARK   53  A    between atoms: _119  and  _120
REMARK   54  A    between atoms: _122  and  _124
REMARK   55  A    between atoms: _124  and  _125
REMARK   56  A    between atoms: _124  and  _127
REMARK   57  A    between atoms: _127  and  _128
REMARK   58  A    between atoms: _131  and  _133
REMARK   59  A    between atoms: _133  and  _134
REMARK   60  A    between atoms: _136  and  _138
REMARK   61  A    between atoms: _138  and  _139
REMARK   62  A    between atoms: _141  and  _143
REMARK   63  A    between atoms: _143  and  _144
REMARK   64  A    between atoms: _143  and  _146
REMARK   65  A    between atoms: _146  and  _147
REMARK   66  A    between atoms: _150  and  _152
REMARK   67  A    between atoms: _152  and  _153
REMARK   68  A    between atoms: _155  and  _157
REMARK   69  A    between atoms: _157  and  _158
REMARK   70  A    between atoms: _160  and  _162
REMARK   71  A    between atoms: _162  and  _163
REMARK   72  A    between atoms: _162  and  _165
REMARK   73  A    between atoms: _165  and  _166
REMARK   74  A    between atoms: _172  and  _174
REMARK   75  A    between atoms: _174  and  _175
REMARK   76  A    between atoms: _174  and  _177
REMARK   77  A    between atoms: _177  and  _178
REMARK   78  A    between atoms: _181  and  _183
REMARK   79  A    between atoms: _183  and  _184
REMARK   80  A    between atoms: _183  and  _186
REMARK   81  A    between atoms: _189  and  _191
REMARK   82  A    between atoms: _191  and  _192
REMARK   83  A    between atoms: _191  and  _194
REMARK   84  A    between atoms: _194  and  _195
REMARK   85  A    between atoms: _198  and  _200
REMARK   86  A    between atoms: _200  and  _201
REMARK   87  A    between atoms: _200  and  _203
REMARK   88  A    between atoms: _203  and  _204
REMARK   89  A    between atoms: _208  and  _209
REMARK   90  A    between atoms: _214  and  _216
REMARK   91  A    between atoms: _216  and  _217
REMARK   92  A    between atoms: _216  and  _219
REMARK   93  A    between atoms: _219  and  _220
REMARK   94  A    between atoms: _223  and  _225
REMARK   95  A    between atoms: _225  and  _226
REMARK   96  A    between atoms: _225  and  _228
REMARK   97  A    between atoms: _228  and  _229
REMARK   98  A    between atoms: _234  and  _236
REMARK   99  A    between atoms: _236  and  _237
REMARK  100  A    between atoms: _236  and  _239
REMARK  101  A    between atoms: _242  and  _244
REMARK  102  A    between atoms: _244  and  _245
REMARK  103  A    between atoms: _244  and  _247
REMARK  104  A    between atoms: _247  and  _248
REMARK  105  A    between atoms: _251  and  _253
REMARK  106  A    between atoms: _253  and  _254
REMARK  107  A    between atoms: _256  and  _258
REMARK  108  A    between atoms: _258  and  _259
REMARK  109  A    between atoms: _258  and  _261
REMARK  110  A    between atoms: _261  and  _262
REMARK  111  A    between atoms: _262  and  _263
REMARK  112  A    between atoms: _263  and  _264
REMARK  113  A    between atoms: _273  and  _275
REMARK  114  A    between atoms: _275  and  _276
REMARK  115  A    between atoms: _275  and  _278
REMARK  116  A    between atoms: _278  and  _279
REMARK  117  A    between atoms: _284  and  _286
REMARK  118  A    between atoms: _286  and  _287
REMARK  119  A    between atoms: _286  and  _289
REMARK  120  A    between atoms: _289  and  _290
REMARK  121  A    between atoms: _290  and  _291
REMARK  122  A    between atoms: _291  and  _292
REMARK  123  A    between atoms: _302  and  _303
REMARK  124  A    between atoms: _308  and  _310
REMARK  125  A    between atoms: _310  and  _311
REMARK  126  A    between atoms: _310  and  _313
REMARK  127  A    between atoms: _313  and  _314
REMARK  128  A    between atoms: _317  and  _319
REMARK  129  A    between atoms: _319  and  _320
REMARK  130  A    between atoms: _319  and  _322
REMARK  131  A    between atoms: _322  and  _323
REMARK  132  A    between atoms: _326  and  _328
REMARK  133  A    between atoms: _328  and  _329
REMARK  134  A    between atoms: _328  and  _331
REMARK  135  A    between atoms: _331  and  _332
REMARK  136  A    between atoms: _335  and  _337
REMARK  137  A    between atoms: _337  and  _338
REMARK  138  A    between atoms: _337  and  _340
REMARK  139  A    between atoms: _340  and  _341
REMARK  140  A    between atoms: _344  and  _346
REMARK  141  A    between atoms: _346  and  _347
REMARK  142  A    between atoms: _346  and  _349
REMARK  143  A    between atoms: _349  and  _350
REMARK  144  A    between atoms: _353  and  _355
REMARK  145  A    between atoms: _355  and  _356
REMARK  146  A    between atoms: _358  and  _360
REMARK  147  A    between atoms: _360  and  _361
REMARK  148  A    between atoms: _364  and  _366
REMARK  149  A    between atoms: _366  and  _367
REMARK  150  A    between atoms: _366  and  _369
REMARK  151  A    between atoms: _369  and  _370
REMARK  152  A    between atoms: _373  and  _375
REMARK  153  A    between atoms: _375  and  _376
REMARK  154  A    between atoms: _375  and  _378
REMARK  155  A    between atoms: _378  and  _379
REMARK  156  A    between atoms: _382  and  _384
REMARK  157  A    between atoms: _384  and  _385
REMARK  158  A    between atoms: _384  and  _387
REMARK  159  A    between atoms: _387  and  _388
REMARK  160  A    between atoms: _391  and  _393
REMARK  161  A    between atoms: _393  and  _394
REMARK  162  A    between atoms: _393  and  _396
REMARK  163  A    between atoms: _399  and  _401
REMARK  164  A    between atoms: _401  and  _402
REMARK  165  A    between atoms: _401  and  _404
REMARK  166  A    between atoms: _404  and  _405
REMARK  167  A    between atoms: _405  and  _406
REMARK  168  A    between atoms: _406  and  _407
REMARK  169  A    between atoms: _407  and  _408
REMARK  170  A    between atoms: _412  and  _414
REMARK  171  A    between atoms: _414  and  _415
REMARK  172  A    between atoms: _414  and  _417
REMARK  173  A    between atoms: _417  and  _418
REMARK  174  A    between atoms: _418  and  _419
REMARK  175  A    between atoms: _421  and  _423
REMARK  176  A    between atoms: _423  and  _424
REMARK  177  A    between atoms: _423  and  _426
REMARK  178  A    between atoms: _426  and  _427
REMARK  179  A    between atoms: _430  and  _432
REMARK  180  A    between atoms: _432  and  _433
REMARK  181  A    between atoms: _435  and  _437
REMARK  182  A    between atoms: _437  and  _438
REMARK  183  A    between atoms: _440  and  _442
REMARK  184  A    between atoms: _442  and  _443
REMARK  185  A    between atoms: _442  and  _445
REMARK  186  A    between atoms: _445  and  _446
REMARK  187  A    between atoms: _449  and  _451
REMARK  188  A    between atoms: _451  and  _452
REMARK  189  A    between atoms: _454  and  _456
REMARK  190  A    between atoms: _456  and  _457
REMARK  191  A    between atoms: _459  and  _461
REMARK  192  A    between atoms: _461  and  _462
REMARK  193  A    between atoms: _461  and  _464
REMARK  194  A    between atoms: _464  and  _465
REMARK  195  A    between atoms: _471  and  _473
REMARK  196  A    between atoms: _473  and  _474
REMARK  197  A    between atoms: _473  and  _476
REMARK  198  A    between atoms: _476  and  _477
REMARK  199  A    between atoms: _480  and  _482
REMARK  200  A    between atoms: _482  and  _483
REMARK  201  A    between atoms: _482  and  _485
REMARK  202  A    between atoms: _488  and  _490
REMARK  203  A    between atoms: _490  and  _491
REMARK  204  A    between atoms: _490  and  _493
REMARK  205  A    between atoms: _493  and  _494
REMARK  206  A    between atoms: _497  and  _499
REMARK  207  A    between atoms: _499  and  _500
REMARK  208  A    between atoms: _499  and  _502
REMARK  209  A    between atoms: _502  and  _503
REMARK  210  A    between atoms: _507  and  _508
REMARK  211  A    between atoms: _513  and  _515
REMARK  212  A    between atoms: _515  and  _516
REMARK  213  A    between atoms: _515  and  _518
REMARK  214  A    between atoms: _518  and  _519
REMARK  215  A    between atoms: _522  and  _524
REMARK  216  A    between atoms: _524  and  _525
REMARK  217  A    between atoms: _524  and  _527
REMARK  218  A    between atoms: _527  and  _528
REMARK  219  A    between atoms: _533  and  _535
REMARK  220  A    between atoms: _535  and  _536
REMARK  221  A    between atoms: _535  and  _538
REMARK  222  A    between atoms: _541  and  _543
REMARK  223  A    between atoms: _543  and  _544
REMARK  224  A    between atoms: _543  and  _546
REMARK  225  A    between atoms: _546  and  _547
REMARK  226  A    between atoms: _550  and  _552
REMARK  227  A    between atoms: _552  and  _553
REMARK  228  A    between atoms: _555  and  _557
REMARK  229  A    between atoms: _557  and  _558
REMARK  230  A    between atoms: _557  and  _560
REMARK  231  A    between atoms: _560  and  _561
REMARK  232  A    between atoms: _561  and  _562
REMARK  233  A    between atoms: _562  and  _563
REMARK                            x       y       z     vdW  Elec       q    Type
REMARK                         _______ _______ _______ _____ _____    ______ ____
ROOT
ATOM      1  O   HOH     1      19.983  16.159  -3.534  0.00  0.00    +0.000 OA
ENDROOT
TORSDOF 0
REMARK  Name = ../refined-set-2016/2xye/2xye_pocket.pdb
REMARK  233 active torsions:
REMARK  status: ('A' for Active; 'I' for Inactive)
REMARK    1  A    between atoms: _1  and  _3
REMARK    2  A    between atoms: _3  and  _4
REMARK    3  A    between atoms: _3  and  _6
REMARK    4  A    between atoms: _6  and  _7
REMARK    5  A    between atoms: _7  and  _8
REMARK    6  A    between atoms: _8  and  _9
REMARK    7  A    between atoms: _18  and  _20
REMARK    8  A    between atoms: _20  and  _21
REMARK    9  A    between atoms: _20  and  _23
REMARK   10  A    between atoms: _23  and  _24
REMARK   11  A    between atoms: _27  and  _29
REMARK   12  A    between atoms: _29  and  _30
REMARK   13  A    between atoms: _29  and  _32
REMARK   14  A    between atoms: _32  and  _33
REMARK   15  A    between atoms: _36  and  _38
REMARK   16  A    between atoms: _38  and  _39
REMARK   17  A    between atoms: _38  and  _41
REMARK   18  A    between atoms: _41  and  _42
REMARK   19  A    between atoms: _45  and  _47
REMARK   20  A    between atoms: _47  and  _48
REMARK   21  A    between atoms: _47  and  _50
REMARK   22  A    between atoms: _50  and  _51
REMARK   23  A    between atoms: _54  and  _56
REMARK   24  A    between atoms: _56  and  _57
REMARK   25  A    between atoms: _59  and  _61
REMARK   26  A    between atoms: _61  and  _62
REMARK   27  A    between atoms: _65  and  _67
REMARK   28  A    between atoms: _67  and  _68
REMARK   29  A    between atoms: _67  and  _70
REMARK   30  A    between atoms: _70  and  _71
REMARK   31  A    between atoms: _74  and  _76
REMARK   32  A    between atoms: _76  and  _77
REMARK   33  A    between atoms: _76  and  _79
REMARK   34  A    between atoms: _79  and  _80
REMARK   35  A    between atoms: _83  and  _85
REMARK   36  A    between atoms: _85  and  _86
REMARK   37  A    between atoms: _85  and  _88
REMARK   38  A    between atoms: _88  and  _89
REMARK   39  A    between atoms: _92  and  _94
REMARK   40  A    between atoms: _94  and  _95
REMARK   41  A    between atoms: _94  and  _97
REMARK   42  A    between atoms: _100  and  _102
REMARK   43  A    between atoms: _102  and  _103
REMARK   44  A    between atoms: _102  and  _105
REMARK   45  A    between atoms: _105  and  _106
REMARK   46  A    between atoms: _106  and  _107
REMARK   47  A    between atoms: _107  and  _108
REMARK   48  A    between atoms: _108  and  _109
REMARK   49  A    between atoms: _113  and  _115
REMARK   50  A    between atoms: _115  and  _116
REMARK   51  A    between atoms: _115  and  _118
REMARK   52  A    between atoms: _118  and  _119
REMARK   53  A    between atoms: _119  and  _120
REMARK   54  A    between atoms: _122  and  _124
REMARK   55  A    between atoms: _124  and  _125
REMARK   56  A    between atoms: _124  and  _127
REMARK   57  A    between atoms: _127  and  _128
REMARK   58  A    between atoms: _131  and  _133
REMARK   59  A    between atoms: _133  and  _134
REMARK   60  A    between atoms: _136  and  _138
REMARK   61  A    between atoms: _138  and  _139
REMARK   62  A    between atoms: _141  and  _143
REMARK   63  A    between atoms: _143  and  _144
REMARK   64  A    between atoms: _143  and  _146
REMARK   65  A    between atoms: _146  and  _147
REMARK   66  A    between atoms: _150  and  _152
REMARK   67  A    between atoms: _152  and  _153
REMARK   68  A    between atoms: _155  and  _157
REMARK   69  A    between atoms: _157  and  _158
REMARK   70  A    between atoms: _160  and  _162
REMARK   71  A    between atoms: _162  and  _163
REMARK   72  A    between atoms: _162  and  _165
REMARK   73  A    between atoms: _165  and  _166
REMARK   74  A    between atoms: _172  and  _174
REMARK   75  A    between atoms: _174  and  _175
REMARK   76  A    between atoms: _174  and  _177
REMARK   77  A    between atoms: _177  and  _178
REMARK   78  A    between atoms: _181  and  _183
REMARK   79  A    between atoms: _183  and  _184
REMARK   80  A    between atoms: _183  and  _186
REMARK   81  A    between atoms: _189  and  _191
REMARK   82  A    between atoms: _191  and  _192
REMARK   83  A    between atoms: _191  and  _194
REMARK   84  A    between atoms: _194  and  _195
REMARK   85  A    between atoms: _198  and  _200
REMARK   86  A    between atoms: _200  and  _201
REMARK   87  A    between atoms: _200  and  _203
REMARK   88  A    between atoms: _203  and  _204
REMARK   89  A    between atoms: _208  and  _209
REMARK   90  A    between atoms: _214  and  _216
REMARK   91  A    between atoms: _216  and  _217
REMARK   92  A    between atoms: _216  and  _219
REMARK   93  A    between atoms: _219  and  _220
REMARK   94  A    between atoms: _223  and  _225
REMARK   95  A    between atoms: _225  and  _226
REMARK   96  A    between atoms: _225  and  _228
REMARK   97  A    between atoms: _228  and  _229
REMARK   98  A    between atoms: _234  and  _236
REMARK   99  A    between atoms: _236  and  _237
REMARK  100  A    between atoms: _236  and  _239
REMARK  101  A    between atoms: _242  and  _244
REMARK  102  A    between atoms: _244  and  _245
REMARK  103  A    between atoms: _244  and  _247
REMARK  104  A    between atoms: _247  and  _248
REMARK  105  A    between atoms: _251  and  _253
REMARK  106  A    between atoms: _253  and  _254
REMARK  107  A    between atoms: _256  and  _258
REMARK  108  A    between atoms: _258  and  _259
REMARK  109  A    between atoms: _258  and  _261
REMARK  110  A    between atoms: _261  and  _262
REMARK  111  A    between atoms: _262  and  _263
REMARK  112  A    between atoms: _263  and  _264
REMARK  113  A    between atoms: _273  and  _275
REMARK  114  A    between atoms: _275  and  _276
REMARK  115  A    between atoms: _275  and  _278
REMARK  116  A    between atoms: _278  and  _279
REMARK  117  A    between atoms: _284  and  _286
REMARK  118  A    between atoms: _286  and  _287
REMARK  119  A    between atoms: _286  and  _289
REMARK  120  A    between atoms: _289  and  _290
REMARK  121  A    between atoms: _290  and  _291
REMARK  122  A    between atoms: _291  and  _292
REMARK  123  A    between atoms: _302  and  _303
REMARK  124  A    between atoms: _308  and  _310
REMARK  125  A    between atoms: _310  and  _311
REMARK  126  A    between atoms: _310  and  _313
REMARK  127  A    between atoms: _313  and  _314
REMARK  128  A    between atoms: _317  and  _319
REMARK  129  A    between atoms: _319  and  _320
REMARK  130  A    between atoms: _319  and  _322
REMARK  131  A    between atoms: _322  and  _323
REMARK  132  A    between atoms: _326  and  _328
REMARK  133  A    between atoms: _328  and  _329
REMARK  134  A    between atoms: _328  and  _331
REMARK  135  A    between atoms: _331  and  _332
REMARK  136  A    between atoms: _335  and  _337
REMARK  137  A    between atoms: _337  and  _338
REMARK  138  A    between atoms: _337  and  _340
REMARK  139  A    between atoms: _340  and  _341
REMARK  140  A    between atoms: _344  and  _346
REMARK  141  A    between atoms: _346  and  _347
REMARK  142  A    between atoms: _346  and  _349
REMARK  143  A    between atoms: _349  and  _350
REMARK  144  A    between atoms: _353  and  _355
REMARK  145  A    between atoms: _355  and  _356
REMARK  146  A    between atoms: _358  and  _360
REMARK  147  A    between atoms: _360  and  _361
REMARK  148  A    between atoms: _364  and  _366
REMARK  149  A    between atoms: _366  and  _367
REMARK  150  A    between atoms: _366  and  _369
REMARK  151  A    between atoms: _369  and  _370
REMARK  152  A    between atoms: _373  and  _375
REMARK  153  A    between atoms: _375  and  _376
REMARK  154  A    between atoms: _375  and  _378
REMARK  155  A    between atoms: _378  and  _379
REMARK  156  A    between atoms: _382  and  _384
REMARK  157  A    between atoms: _384  and  _385
REMARK  158  A    between atoms: _384  and  _387
REMARK  159  A    between atoms: _387  and  _388
REMARK  160  A    between atoms: _391  and  _393
REMARK  161  A    between atoms: _393  and  _394
REMARK  162  A    between atoms: _393  and  _396
REMARK  163  A    between atoms: _399  and  _401
REMARK  164  A    between atoms: _401  and  _402
REMARK  165  A    between atoms: _401  and  _404
REMARK  166  A    between atoms: _404  and  _405
REMARK  167  A    between atoms: _405  and  _406
REMARK  168  A    between atoms: _406  and  _407
REMARK  169  A    between atoms: _407  and  _408
REMARK  170  A    between atoms: _412  and  _414
REMARK  171  A    between atoms: _414  and  _415
REMARK  172  A    between atoms: _414  and  _417
REMARK  173  A    between atoms: _417  and  _418
REMARK  174  A    between atoms: _418  and  _419
REMARK  175  A    between atoms: _421  and  _423
REMARK  176  A    between atoms: _423  and  _424
REMARK  177  A    between atoms: _423  and  _426
REMARK  178  A    between atoms: _426  and  _427
REMARK  179  A    between atoms: _430  and  _432
REMARK  180  A    between atoms: _432  and  _433
REMARK  181  A    between atoms: _435  and  _437
REMARK  182  A    between atoms: _437  and  _438
REMARK  183  A    between atoms: _440  and  _442
REMARK  184  A    between atoms: _442  and  _443
REMARK  185  A    between atoms: _442  and  _445
REMARK  186  A    between atoms: _445  and  _446
REMARK  187  A    between atoms: _449  and  _451
REMARK  188  A    between atoms: _451  and  _452
REMARK  189  A    between atoms: _454  and  _456
REMARK  190  A    between atoms: _456  and  _457
REMARK  191  A    between atoms: _459  and  _461
REMARK  192  A    between atoms: _461  and  _462
REMARK  193  A    between atoms: _461  and  _464
REMARK  194  A    between atoms: _464  and  _465
REMARK  195  A    between atoms: _471  and  _473
REMARK  196  A    between atoms: _473  and  _474
REMARK  197  A    between atoms: _473  and  _476
REMARK  198  A    between atoms: _476  and  _477
REMARK  199  A    between atoms: _480  and  _482
REMARK  200  A    between atoms: _482  and  _483
REMARK  201  A    between atoms: _482  and  _485
REMARK  202  A    between atoms: _488  and  _490
REMARK  203  A    between atoms: _490  and  _491
REMARK  204  A    between atoms: _490  and  _493
REMARK  205  A    between atoms: _493  and  _494
REMARK  206  A    between atoms: _497  and  _499
REMARK  207  A    between atoms: _499  and  _500
REMARK  208  A    between atoms: _499  and  _502
REMARK  209  A    between atoms: _502  and  _503
REMARK  210  A    between atoms: _507  and  _508
REMARK  211  A    between atoms: _513  and  _515
REMARK  212  A    between atoms: _515  and  _516
REMARK  213  A    between atoms: _515  and  _518
REMARK  214  A    between atoms: _518  and  _519
REMARK  215  A    between atoms: _522  and  _524
REMARK  216  A    between atoms: _524  and  _525
REMARK  217  A    between atoms: _524  and  _527
REMARK  218  A    between atoms: _527  and  _528
REMARK  219  A    between atoms: _533  and  _535
REMARK  220  A    between atoms: _535  and  _536
REMARK  221  A    between atoms: _535  and  _538
REMARK  222  A    between atoms: _541  and  _543
REMARK  223  A    between atoms: _543  and  _544
REMARK  224  A    between atoms: _543  and  _546
REMARK  225  A    between atoms: _546  and  _547
REMARK  226  A    between atoms: _550  and  _552
REMARK  227  A    between atoms: _552  and  _553
REMARK  228  A    between atoms: _555  and  _557
REMARK  229  A    between atoms: _557  and  _558
REMARK  230  A    between atoms: _557  and  _560
REMARK  231  A    between atoms: _560  and  _561
REMARK  232  A    between atoms: _561  and  _562
REMARK  233  A    between atoms: _562  and  _563
REMARK                            x       y       z     vdW  Elec       q    Type
REMARK                         _______ _______ _______ _____ _____    ______ ____
ROOT
ATOM      1  O   HOH     1       4.124  22.225  -4.972  0.00  0.00    +0.000 OA
ENDROOT
TORSDOF 0
REMARK  Name = ../refined-set-2016/2xye/2xye_pocket.pdb
REMARK  233 active torsions:
REMARK  status: ('A' for Active; 'I' for Inactive)
REMARK    1  A    between atoms: _1  and  _3
REMARK    2  A    between atoms: _3  and  _4
REMARK    3  A    between atoms: _3  and  _6
REMARK    4  A    between atoms: _6  and  _7
REMARK    5  A    between atoms: _7  and  _8
REMARK    6  A    between atoms: _8  and  _9
REMARK    7  A    between atoms: _18  and  _20
REMARK    8  A    between atoms: _20  and  _21
REMARK    9  A    between atoms: _20  and  _23
REMARK   10  A    between atoms: _23  and  _24
REMARK   11  A    between atoms: _27  and  _29
REMARK   12  A    between atoms: _29  and  _30
REMARK   13  A    between atoms: _29  and  _32
REMARK   14  A    between atoms: _32  and  _33
REMARK   15  A    between atoms: _36  and  _38
REMARK   16  A    between atoms: _38  and  _39
REMARK   17  A    between atoms: _38  and  _41
REMARK   18  A    between atoms: _41  and  _42
REMARK   19  A    between atoms: _45  and  _47
REMARK   20  A    between atoms: _47  and  _48
REMARK   21  A    between atoms: _47  and  _50
REMARK   22  A    between atoms: _50  and  _51
REMARK   23  A    between atoms: _54  and  _56
REMARK   24  A    between atoms: _56  and  _57
REMARK   25  A    between atoms: _59  and  _61
REMARK   26  A    between atoms: _61  and  _62
REMARK   27  A    between atoms: _65  and  _67
REMARK   28  A    between atoms: _67  and  _68
REMARK   29  A    between atoms: _67  and  _70
REMARK   30  A    between atoms: _70  and  _71
REMARK   31  A    between atoms: _74  and  _76
REMARK   32  A    between atoms: _76  and  _77
REMARK   33  A    between atoms: _76  and  _79
REMARK   34  A    between atoms: _79  and  _80
REMARK   35  A    between atoms: _83  and  _85
REMARK   36  A    between atoms: _85  and  _86
REMARK   37  A    between atoms: _85  and  _88
REMARK   38  A    between atoms: _88  and  _89
REMARK   39  A    between atoms: _92  and  _94
REMARK   40  A    between atoms: _94  and  _95
REMARK   41  A    between atoms: _94  and  _97
REMARK   42  A    between atoms: _100  and  _102
REMARK   43  A    between atoms: _102  and  _103
REMARK   44  A    between atoms: _102  and  _105
REMARK   45  A    between atoms: _105  and  _106
REMARK   46  A    between atoms: _106  and  _107
REMARK   47  A    between atoms: _107  and  _108
REMARK   48  A    between atoms: _108  and  _109
REMARK   49  A    between atoms: _113  and  _115
REMARK   50  A    between atoms: _115  and  _116
REMARK   51  A    between atoms: _115  and  _118
REMARK   52  A    between atoms: _118  and  _119
REMARK   53  A    between atoms: _119  and  _120
REMARK   54  A    between atoms: _122  and  _124
REMARK   55  A    between atoms: _124  and  _125
REMARK   56  A    between atoms: _124  and  _127
REMARK   57  A    between atoms: _127  and  _128
REMARK   58  A    between atoms: _131  and  _133
REMARK   59  A    between atoms: _133  and  _134
REMARK   60  A    between atoms: _136  and  _138
REMARK   61  A    between atoms: _138  and  _139
REMARK   62  A    between atoms: _141  and  _143
REMARK   63  A    between atoms: _143  and  _144
REMARK   64  A    between atoms: _143  and  _146
REMARK   65  A    between atoms: _146  and  _147
REMARK   66  A    between atoms: _150  and  _152
REMARK   67  A    between atoms: _152  and  _153
REMARK   68  A    between atoms: _155  and  _157
REMARK   69  A    between atoms: _157  and  _158
REMARK   70  A    between atoms: _160  and  _162
REMARK   71  A    between atoms: _162  and  _163
REMARK   72  A    between atoms: _162  and  _165
REMARK   73  A    between atoms: _165  and  _166
REMARK   74  A    between atoms: _172  and  _174
REMARK   75  A    between atoms: _174  and  _175
REMARK   76  A    between atoms: _174  and  _177
REMARK   77  A    between atoms: _177  and  _178
REMARK   78  A    between atoms: _181  and  _183
REMARK   79  A    between atoms: _183  and  _184
REMARK   80  A    between atoms: _183  and  _186
REMARK   81  A    between atoms: _189  and  _191
REMARK   82  A    between atoms: _191  and  _192
REMARK   83  A    between atoms: _191  and  _194
REMARK   84  A    between atoms: _194  and  _195
REMARK   85  A    between atoms: _198  and  _200
REMARK   86  A    between atoms: _200  and  _201
REMARK   87  A    between atoms: _200  and  _203
REMARK   88  A    between atoms: _203  and  _204
REMARK   89  A    between atoms: _208  and  _209
REMARK   90  A    between atoms: _214  and  _216
REMARK   91  A    between atoms: _216  and  _217
REMARK   92  A    between atoms: _216  and  _219
REMARK   93  A    between atoms: _219  and  _220
REMARK   94  A    between atoms: _223  and  _225
REMARK   95  A    between atoms: _225  and  _226
REMARK   96  A    between atoms: _225  and  _228
REMARK   97  A    between atoms: _228  and  _229
REMARK   98  A    between atoms: _234  and  _236
REMARK   99  A    between atoms: _236  and  _237
REMARK  100  A    between atoms: _236  and  _239
REMARK  101  A    between atoms: _242  and  _244
REMARK  102  A    between atoms: _244  and  _245
REMARK  103  A    between atoms: _244  and  _247
REMARK  104  A    between atoms: _247  and  _248
REMARK  105  A    between atoms: _251  and  _253
REMARK  106  A    between atoms: _253  and  _254
REMARK  107  A    between atoms: _256  and  _258
REMARK  108  A    between atoms: _258  and  _259
REMARK  109  A    between atoms: _258  and  _261
REMARK  110  A    between atoms: _261  and  _262
REMARK  111  A    between atoms: _262  and  _263
REMARK  112  A    between atoms: _263  and  _264
REMARK  113  A    between atoms: _273  and  _275
REMARK  114  A    between atoms: _275  and  _276
REMARK  115  A    between atoms: _275  and  _278
REMARK  116  A    between atoms: _278  and  _279
REMARK  117  A    between atoms: _284  and  _286
REMARK  118  A    between atoms: _286  and  _287
REMARK  119  A    between atoms: _286  and  _289
REMARK  120  A    between atoms: _289  and  _290
REMARK  121  A    between atoms: _290  and  _291
REMARK  122  A    between atoms: _291  and  _292
REMARK  123  A    between atoms: _302  and  _303
REMARK  124  A    between atoms: _308  and  _310
REMARK  125  A    between atoms: _310  and  _311
REMARK  126  A    between atoms: _310  and  _313
REMARK  127  A    between atoms: _313  and  _314
REMARK  128  A    between atoms: _317  and  _319
REMARK  129  A    between atoms: _319  and  _320
REMARK  130  A    between atoms: _319  and  _322
REMARK  131  A    between atoms: _322  and  _323
REMARK  132  A    between atoms: _326  and  _328
REMARK  133  A    between atoms: _328  and  _329
REMARK  134  A    between atoms: _328  and  _331
REMARK  135  A    between atoms: _331  and  _332
REMARK  136  A    between atoms: _335  and  _337
REMARK  137  A    between atoms: _337  and  _338
REMARK  138  A    between atoms: _337  and  _340
REMARK  139  A    between atoms: _340  and  _341
REMARK  140  A    between atoms: _344  and  _346
REMARK  141  A    between atoms: _346  and  _347
REMARK  142  A    between atoms: _346  and  _349
REMARK  143  A    between atoms: _349  and  _350
REMARK  144  A    between atoms: _353  and  _355
REMARK  145  A    between atoms: _355  and  _356
REMARK  146  A    between atoms: _358  and  _360
REMARK  147  A    between atoms: _360  and  _361
REMARK  148  A    between atoms: _364  and  _366
REMARK  149  A    between atoms: _366  and  _367
REMARK  150  A    between atoms: _366  and  _369
REMARK  151  A    between atoms: _369  and  _370
REMARK  152  A    between atoms: _373  and  _375
REMARK  153  A    between atoms: _375  and  _376
REMARK  154  A    between atoms: _375  and  _378
REMARK  155  A    between atoms: _378  and  _379
REMARK  156  A    between atoms: _382  and  _384
REMARK  157  A    between atoms: _384  and  _385
REMARK  158  A    between atoms: _384  and  _387
REMARK  159  A    between atoms: _387  and  _388
REMARK  160  A    between atoms: _391  and  _393
REMARK  161  A    between atoms: _393  and  _394
REMARK  162  A    between atoms: _393  and  _396
REMARK  163  A    between atoms: _399  and  _401
REMARK  164  A    between atoms: _401  and  _402
REMARK  165  A    between atoms: _401  and  _404
REMARK  166  A    between atoms: _404  and  _405
REMARK  167  A    between atoms: _405  and  _406
REMARK  168  A    between atoms: _406  and  _407
REMARK  169  A    between atoms: _407  and  _408
REMARK  170  A    between atoms: _412  and  _414
REMARK  171  A    between atoms: _414  and  _415
REMARK  172  A    between atoms: _414  and  _417
REMARK  173  A    between atoms: _417  and  _418
REMARK  174  A    between atoms: _418  and  _419
REMARK  175  A    between atoms: _421  and  _423
REMARK  176  A    between atoms: _423  and  _424
REMARK  177  A    between atoms: _423  and  _426
REMARK  178  A    between atoms: _426  and  _427
REMARK  179  A    between atoms: _430  and  _432
REMARK  180  A    between atoms: _432  and  _433
REMARK  181  A    between atoms: _435  and  _437
REMARK  182  A    between atoms: _437  and  _438
REMARK  183  A    between atoms: _440  and  _442
REMARK  184  A    between atoms: _442  and  _443
REMARK  185  A    between atoms: _442  and  _445
REMARK  186  A    between atoms: _445  and  _446
REMARK  187  A    between atoms: _449  and  _451
REMARK  188  A    between atoms: _451  and  _452
REMARK  189  A    between atoms: _454  and  _456
REMARK  190  A    between atoms: _456  and  _457
REMARK  191  A    between atoms: _459  and  _461
REMARK  192  A    between atoms: _461  and  _462
REMARK  193  A    between atoms: _461  and  _464
REMARK  194  A    between atoms: _464  and  _465
REMARK  195  A    between atoms: _471  and  _473
REMARK  196  A    between atoms: _473  and  _474
REMARK  197  A    between atoms: _473  and  _476
REMARK  198  A    between atoms: _476  and  _477
REMARK  199  A    between atoms: _480  and  _482
REMARK  200  A    between atoms: _482  and  _483
REMARK  201  A    between atoms: _482  and  _485
REMARK  202  A    between atoms: _488  and  _490
REMARK  203  A    between atoms: _490  and  _491
REMARK  204  A    between atoms: _490  and  _493
REMARK  205  A    between atoms: _493  and  _494
REMARK  206  A    between atoms: _497  and  _499
REMARK  207  A    between atoms: _499  and  _500
REMARK  208  A    between atoms: _499  and  _502
REMARK  209  A    between atoms: _502  and  _503
REMARK  210  A    between atoms: _507  and  _508
REMARK  211  A    between atoms: _513  and  _515
REMARK  212  A    between atoms: _515  and  _516
REMARK  213  A    between atoms: _515  and  _518
REMARK  214  A    between atoms: _518  and  _519
REMARK  215  A    between atoms: _522  and  _524
REMARK  216  A    between atoms: _524  and  _525
REMARK  217  A    between atoms: _524  and  _527
REMARK  218  A    between atoms: _527  and  _528
REMARK  219  A    between atoms: _533  and  _535
REMARK  220  A    between atoms: _535  and  _536
REMARK  221  A    between atoms: _535  and  _538
REMARK  222  A    between atoms: _541  and  _543
REMARK  223  A    between atoms: _543  and  _544
REMARK  224  A    between atoms: _543  and  _546
REMARK  225  A    between atoms: _546  and  _547
REMARK  226  A    between atoms: _550  and  _552
REMARK  227  A    between atoms: _552  and  _553
REMARK  228  A    between atoms: _555  and  _557
REMARK  229  A    between atoms: _557  and  _558
REMARK  230  A    between atoms: _557  and  _560
REMARK  231  A    between atoms: _560  and  _561
REMARK  232  A    between atoms: _561  and  _562
REMARK  233  A    between atoms: _562  and  _563
REMARK                            x       y       z     vdW  Elec       q    Type
REMARK                         _______ _______ _______ _____ _____    ______ ____
ROOT
ATOM      1  O   HOH     1       9.763  16.848  13.745  0.00  0.00    +0.000 OA
ENDROOT
TORSDOF 0
REMARK  Name = ../refined-set-2016/2xye/2xye_pocket.pdb
REMARK  233 active torsions:
REMARK  status: ('A' for Active; 'I' for Inactive)
REMARK    1  A    between atoms: _1  and  _3
REMARK    2  A    between atoms: _3  and  _4
REMARK    3  A    between atoms: _3  and  _6
REMARK    4  A    between atoms: _6  and  _7
REMARK    5  A    between atoms: _7  and  _8
REMARK    6  A    between atoms: _8  and  _9
REMARK    7  A    between atoms: _18  and  _20
REMARK    8  A    between atoms: _20  and  _21
REMARK    9  A    between atoms: _20  and  _23
REMARK   10  A    between atoms: _23  and  _24
REMARK   11  A    between atoms: _27  and  _29
REMARK   12  A    between atoms: _29  and  _30
REMARK   13  A    between atoms: _29  and  _32
REMARK   14  A    between atoms: _32  and  _33
REMARK   15  A    between atoms: _36  and  _38
REMARK   16  A    between atoms: _38  and  _39
REMARK   17  A    between atoms: _38  and  _41
REMARK   18  A    between atoms: _41  and  _42
REMARK   19  A    between atoms: _45  and  _47
REMARK   20  A    between atoms: _47  and  _48
REMARK   21  A    between atoms: _47  and  _50
REMARK   22  A    between atoms: _50  and  _51
REMARK   23  A    between atoms: _54  and  _56
REMARK   24  A    between atoms: _56  and  _57
REMARK   25  A    between atoms: _59  and  _61
REMARK   26  A    between atoms: _61  and  _62
REMARK   27  A    between atoms: _65  and  _67
REMARK   28  A    between atoms: _67  and  _68
REMARK   29  A    between atoms: _67  and  _70
REMARK   30  A    between atoms: _70  and  _71
REMARK   31  A    between atoms: _74  and  _76
REMARK   32  A    between atoms: _76  and  _77
REMARK   33  A    between atoms: _76  and  _79
REMARK   34  A    between atoms: _79  and  _80
REMARK   35  A    between atoms: _83  and  _85
REMARK   36  A    between atoms: _85  and  _86
REMARK   37  A    between atoms: _85  and  _88
REMARK   38  A    between atoms: _88  and  _89
REMARK   39  A    between atoms: _92  and  _94
REMARK   40  A    between atoms: _94  and  _95
REMARK   41  A    between atoms: _94  and  _97
REMARK   42  A    between atoms: _100  and  _102
REMARK   43  A    between atoms: _102  and  _103
REMARK   44  A    between atoms: _102  and  _105
REMARK   45  A    between atoms: _105  and  _106
REMARK   46  A    between atoms: _106  and  _107
REMARK   47  A    between atoms: _107  and  _108
REMARK   48  A    between atoms: _108  and  _109
REMARK   49  A    between atoms: _113  and  _115
REMARK   50  A    between atoms: _115  and  _116
REMARK   51  A    between atoms: _115  and  _118
REMARK   52  A    between atoms: _118  and  _119
REMARK   53  A    between atoms: _119  and  _120
REMARK   54  A    between atoms: _122  and  _124
REMARK   55  A    between atoms: _124  and  _125
REMARK   56  A    between atoms: _124  and  _127
REMARK   57  A    between atoms: _127  and  _128
REMARK   58  A    between atoms: _131  and  _133
REMARK   59  A    between atoms: _133  and  _134
REMARK   60  A    between atoms: _136  and  _138
REMARK   61  A    between atoms: _138  and  _139
REMARK   62  A    between atoms: _141  and  _143
REMARK   63  A    between atoms: _143  and  _144
REMARK   64  A    between atoms: _143  and  _146
REMARK   65  A    between atoms: _146  and  _147
REMARK   66  A    between atoms: _150  and  _152
REMARK   67  A    between atoms: _152  and  _153
REMARK   68  A    between atoms: _155  and  _157
REMARK   69  A    between atoms: _157  and  _158
REMARK   70  A    between atoms: _160  and  _162
REMARK   71  A    between atoms: _162  and  _163
REMARK   72  A    between atoms: _162  and  _165
REMARK   73  A    between atoms: _165  and  _166
REMARK   74  A    between atoms: _172  and  _174
REMARK   75  A    between atoms: _174  and  _175
REMARK   76  A    between atoms: _174  and  _177
REMARK   77  A    between atoms: _177  and  _178
REMARK   78  A    between atoms: _181  and  _183
REMARK   79  A    between atoms: _183  and  _184
REMARK   80  A    between atoms: _183  and  _186
REMARK   81  A    between atoms: _189  and  _191
REMARK   82  A    between atoms: _191  and  _192
REMARK   83  A    between atoms: _191  and  _194
REMARK   84  A    between atoms: _194  and  _195
REMARK   85  A    between atoms: _198  and  _200
REMARK   86  A    between atoms: _200  and  _201
REMARK   87  A    between atoms: _200  and  _203
REMARK   88  A    between atoms: _203  and  _204
REMARK   89  A    between atoms: _208  and  _209
REMARK   90  A    between atoms: _214  and  _216
REMARK   91  A    between atoms: _216  and  _217
REMARK   92  A    between atoms: _216  and  _219
REMARK   93  A    between atoms: _219  and  _220
REMARK   94  A    between atoms: _223  and  _225
REMARK   95  A    between atoms: _225  and  _226
REMARK   96  A    between atoms: _225  and  _228
REMARK   97  A    between atoms: _228  and  _229
REMARK   98  A    between atoms: _234  and  _236
REMARK   99  A    between atoms: _236  and  _237
REMARK  100  A    between atoms: _236  and  _239
REMARK  101  A    between atoms: _242  and  _244
REMARK  102  A    between atoms: _244  and  _245
REMARK  103  A    between atoms: _244  and  _247
REMARK  104  A    between atoms: _247  and  _248
REMARK  105  A    between atoms: _251  and  _253
REMARK  106  A    between atoms: _253  and  _254
REMARK  107  A    between atoms: _256  and  _258
REMARK  108  A    between atoms: _258  and  _259
REMARK  109  A    between atoms: _258  and  _261
REMARK  110  A    between atoms: _261  and  _262
REMARK  111  A    between atoms: _262  and  _263
REMARK  112  A    between atoms: _263  and  _264
REMARK  113  A    between atoms: _273  and  _275
REMARK  114  A    between atoms: _275  and  _276
REMARK  115  A    between atoms: _275  and  _278
REMARK  116  A    between atoms: _278  and  _279
REMARK  117  A    between atoms: _284  and  _286
REMARK  118  A    between atoms: _286  and  _287
REMARK  119  A    between atoms: _286  and  _289
REMARK  120  A    between atoms: _289  and  _290
REMARK  121  A    between atoms: _290  and  _291
REMARK  122  A    between atoms: _291  and  _292
REMARK  123  A    between atoms: _302  and  _303
REMARK  124  A    between atoms: _308  and  _310
REMARK  125  A    between atoms: _310  and  _311
REMARK  126  A    between atoms: _310  and  _313
REMARK  127  A    between atoms: _313  and  _314
REMARK  128  A    between atoms: _317  and  _319
REMARK  129  A    between atoms: _319  and  _320
REMARK  130  A    between atoms: _319  and  _322
REMARK  131  A    between atoms: _322  and  _323
REMARK  132  A    between atoms: _326  and  _328
REMARK  133  A    between atoms: _328  and  _329
REMARK  134  A    between atoms: _328  and  _331
REMARK  135  A    between atoms: _331  and  _332
REMARK  136  A    between atoms: _335  and  _337
REMARK  137  A    between atoms: _337  and  _338
REMARK  138  A    between atoms: _337  and  _340
REMARK  139  A    between atoms: _340  and  _341
REMARK  140  A    between atoms: _344  and  _346
REMARK  141  A    between atoms: _346  and  _347
REMARK  142  A    between atoms: _346  and  _349
REMARK  143  A    between atoms: _349  and  _350
REMARK  144  A    between atoms: _353  and  _355
REMARK  145  A    between atoms: _355  and  _356
REMARK  146  A    between atoms: _358  and  _360
REMARK  147  A    between atoms: _360  and  _361
REMARK  148  A    between atoms: _364  and  _366
REMARK  149  A    between atoms: _366  and  _367
REMARK  150  A    between atoms: _366  and  _369
REMARK  151  A    between atoms: _369  and  _370
REMARK  152  A    between atoms: _373  and  _375
REMARK  153  A    between atoms: _375  and  _376
REMARK  154  A    between atoms: _375  and  _378
REMARK  155  A    between atoms: _378  and  _379
REMARK  156  A    between atoms: _382  and  _384
REMARK  157  A    between atoms: _384  and  _385
REMARK  158  A    between atoms: _384  and  _387
REMARK  159  A    between atoms: _387  and  _388
REMARK  160  A    between atoms: _391  and  _393
REMARK  161  A    between atoms: _393  and  _394
REMARK  162  A    between atoms: _393  and  _396
REMARK  163  A    between atoms: _399  and  _401
REMARK  164  A    between atoms: _401  and  _402
REMARK  165  A    between atoms: _401  and  _404
REMARK  166  A    between atoms: _404  and  _405
REMARK  167  A    between atoms: _405  and  _406
REMARK  168  A    between atoms: _406  and  _407
REMARK  169  A    between atoms: _407  and  _408
REMARK  170  A    between atoms: _412  and  _414
REMARK  171  A    between atoms: _414  and  _415
REMARK  172  A    between atoms: _414  and  _417
REMARK  173  A    between atoms: _417  and  _418
REMARK  174  A    between atoms: _418  and  _419
REMARK  175  A    between atoms: _421  and  _423
REMARK  176  A    between atoms: _423  and  _424
REMARK  177  A    between atoms: _423  and  _426
REMARK  178  A    between atoms: _426  and  _427
REMARK  179  A    between atoms: _430  and  _432
REMARK  180  A    between atoms: _432  and  _433
REMARK  181  A    between atoms: _435  and  _437
REMARK  182  A    between atoms: _437  and  _438
REMARK  183  A    between atoms: _440  and  _442
REMARK  184  A    between atoms: _442  and  _443
REMARK  185  A    between atoms: _442  and  _445
REMARK  186  A    between atoms: _445  and  _446
REMARK  187  A    between atoms: _449  and  _451
REMARK  188  A    between atoms: _451  and  _452
REMARK  189  A    between atoms: _454  and  _456
REMARK  190  A    between atoms: _456  and  _457
REMARK  191  A    between atoms: _459  and  _461
REMARK  192  A    between atoms: _461  and  _462
REMARK  193  A    between atoms: _461  and  _464
REMARK  194  A    between atoms: _464  and  _465
REMARK  195  A    between atoms: _471  and  _473
REMARK  196  A    between atoms: _473  and  _474
REMARK  197  A    between atoms: _473  and  _476
REMARK  198  A    between atoms: _476  and  _477
REMARK  199  A    between atoms: _480  and  _482
REMARK  200  A    between atoms: _482  and  _483
REMARK  201  A    between atoms: _482  and  _485
REMARK  202  A    between atoms: _488  and  _490
REMARK  203  A    between atoms: _490  and  _491
REMARK  204  A    between atoms: _490  and  _493
REMARK  205  A    between atoms: _493  and  _494
REMARK  206  A    between atoms: _497  and  _499
REMARK  207  A    between atoms: _499  and  _500
REMARK  208  A    between atoms: _499  and  _502
REMARK  209  A    between atoms: _502  and  _503
REMARK  210  A    between atoms: _507  and  _508
REMARK  211  A    between atoms: _513  and  _515
REMARK  212  A    between atoms: _515  and  _516
REMARK  213  A    between atoms: _515  and  _518
REMARK  214  A    between atoms: _518  and  _519
REMARK  215  A    between atoms: _522  and  _524
REMARK  216  A    between atoms: _524  and  _525
REMARK  217  A    between atoms: _524  and  _527
REMARK  218  A    between atoms: _527  and  _528
REMARK  219  A    between atoms: _533  and  _535
REMARK  220  A    between atoms: _535  and  _536
REMARK  221  A    between atoms: _535  and  _538
REMARK  222  A    between atoms: _541  and  _543
REMARK  223  A    between atoms: _543  and  _544
REMARK  224  A    between atoms: _543  and  _546
REMARK  225  A    between atoms: _546  and  _547
REMARK  226  A    between atoms: _550  and  _552
REMARK  227  A    between atoms: _552  and  _553
REMARK  228  A    between atoms: _555  and  _557
REMARK  229  A    between atoms: _557  and  _558
REMARK  230  A    between atoms: _557  and  _560
REMARK  231  A    between atoms: _560  and  _561
REMARK  232  A    between atoms: _561  and  _562
REMARK  233  A    between atoms: _562  and  _563
REMARK                            x       y       z     vdW  Elec       q    Type
REMARK                         _______ _______ _______ _____ _____    ______ ____
ROOT
ATOM      1  O   HOH     1       2.313  21.933  -0.797  0.00  0.00    +0.000 OA
ENDROOT
TORSDOF 0
REMARK  Name = ../refined-set-2016/2xye/2xye_pocket.pdb
REMARK  233 active torsions:
REMARK  status: ('A' for Active; 'I' for Inactive)
REMARK    1  A    between atoms: _1  and  _3
REMARK    2  A    between atoms: _3  and  _4
REMARK    3  A    between atoms: _3  and  _6
REMARK    4  A    between atoms: _6  and  _7
REMARK    5  A    between atoms: _7  and  _8
REMARK    6  A    between atoms: _8  and  _9
REMARK    7  A    between atoms: _18  and  _20
REMARK    8  A    between atoms: _20  and  _21
REMARK    9  A    between atoms: _20  and  _23
REMARK   10  A    between atoms: _23  and  _24
REMARK   11  A    between atoms: _27  and  _29
REMARK   12  A    between atoms: _29  and  _30
REMARK   13  A    between atoms: _29  and  _32
REMARK   14  A    between atoms: _32  and  _33
REMARK   15  A    between atoms: _36  and  _38
REMARK   16  A    between atoms: _38  and  _39
REMARK   17  A    between atoms: _38  and  _41
REMARK   18  A    between atoms: _41  and  _42
REMARK   19  A    between atoms: _45  and  _47
REMARK   20  A    between atoms: _47  and  _48
REMARK   21  A    between atoms: _47  and  _50
REMARK   22  A    between atoms: _50  and  _51
REMARK   23  A    between atoms: _54  and  _56
REMARK   24  A    between atoms: _56  and  _57
REMARK   25  A    between atoms: _59  and  _61
REMARK   26  A    between atoms: _61  and  _62
REMARK   27  A    between atoms: _65  and  _67
REMARK   28  A    between atoms: _67  and  _68
REMARK   29  A    between atoms: _67  and  _70
REMARK   30  A    between atoms: _70  and  _71
REMARK   31  A    between atoms: _74  and  _76
REMARK   32  A    between atoms: _76  and  _77
REMARK   33  A    between atoms: _76  and  _79
REMARK   34  A    between atoms: _79  and  _80
REMARK   35  A    between atoms: _83  and  _85
REMARK   36  A    between atoms: _85  and  _86
REMARK   37  A    between atoms: _85  and  _88
REMARK   38  A    between atoms: _88  and  _89
REMARK   39  A    between atoms: _92  and  _94
REMARK   40  A    between atoms: _94  and  _95
REMARK   41  A    between atoms: _94  and  _97
REMARK   42  A    between atoms: _100  and  _102
REMARK   43  A    between atoms: _102  and  _103
REMARK   44  A    between atoms: _102  and  _105
REMARK   45  A    between atoms: _105  and  _106
REMARK   46  A    between atoms: _106  and  _107
REMARK   47  A    between atoms: _107  and  _108
REMARK   48  A    between atoms: _108  and  _109
REMARK   49  A    between atoms: _113  and  _115
REMARK   50  A    between atoms: _115  and  _116
REMARK   51  A    between atoms: _115  and  _118
REMARK   52  A    between atoms: _118  and  _119
REMARK   53  A    between atoms: _119  and  _120
REMARK   54  A    between atoms: _122  and  _124
REMARK   55  A    between atoms: _124  and  _125
REMARK   56  A    between atoms: _124  and  _127
REMARK   57  A    between atoms: _127  and  _128
REMARK   58  A    between atoms: _131  and  _133
REMARK   59  A    between atoms: _133  and  _134
REMARK   60  A    between atoms: _136  and  _138
REMARK   61  A    between atoms: _138  and  _139
REMARK   62  A    between atoms: _141  and  _143
REMARK   63  A    between atoms: _143  and  _144
REMARK   64  A    between atoms: _143  and  _146
REMARK   65  A    between atoms: _146  and  _147
REMARK   66  A    between atoms: _150  and  _152
REMARK   67  A    between atoms: _152  and  _153
REMARK   68  A    between atoms: _155  and  _157
REMARK   69  A    between atoms: _157  and  _158
REMARK   70  A    between atoms: _160  and  _162
REMARK   71  A    between atoms: _162  and  _163
REMARK   72  A    between atoms: _162  and  _165
REMARK   73  A    between atoms: _165  and  _166
REMARK   74  A    between atoms: _172  and  _174
REMARK   75  A    between atoms: _174  and  _175
REMARK   76  A    between atoms: _174  and  _177
REMARK   77  A    between atoms: _177  and  _178
REMARK   78  A    between atoms: _181  and  _183
REMARK   79  A    between atoms: _183  and  _184
REMARK   80  A    between atoms: _183  and  _186
REMARK   81  A    between atoms: _189  and  _191
REMARK   82  A    between atoms: _191  and  _192
REMARK   83  A    between atoms: _191  and  _194
REMARK   84  A    between atoms: _194  and  _195
REMARK   85  A    between atoms: _198  and  _200
REMARK   86  A    between atoms: _200  and  _201
REMARK   87  A    between atoms: _200  and  _203
REMARK   88  A    between atoms: _203  and  _204
REMARK   89  A    between atoms: _208  and  _209
REMARK   90  A    between atoms: _214  and  _216
REMARK   91  A    between atoms: _216  and  _217
REMARK   92  A    between atoms: _216  and  _219
REMARK   93  A    between atoms: _219  and  _220
REMARK   94  A    between atoms: _223  and  _225
REMARK   95  A    between atoms: _225  and  _226
REMARK   96  A    between atoms: _225  and  _228
REMARK   97  A    between atoms: _228  and  _229
REMARK   98  A    between atoms: _234  and  _236
REMARK   99  A    between atoms: _236  and  _237
REMARK  100  A    between atoms: _236  and  _239
REMARK  101  A    between atoms: _242  and  _244
REMARK  102  A    between atoms: _244  and  _245
REMARK  103  A    between atoms: _244  and  _247
REMARK  104  A    between atoms: _247  and  _248
REMARK  105  A    between atoms: _251  and  _253
REMARK  106  A    between atoms: _253  and  _254
REMARK  107  A    between atoms: _256  and  _258
REMARK  108  A    between atoms: _258  and  _259
REMARK  109  A    between atoms: _258  and  _261
REMARK  110  A    between atoms: _261  and  _262
REMARK  111  A    between atoms: _262  and  _263
REMARK  112  A    between atoms: _263  and  _264
REMARK  113  A    between atoms: _273  and  _275
REMARK  114  A    between atoms: _275  and  _276
REMARK  115  A    between atoms: _275  and  _278
REMARK  116  A    between atoms: _278  and  _279
REMARK  117  A    between atoms: _284  and  _286
REMARK  118  A    between atoms: _286  and  _287
REMARK  119  A    between atoms: _286  and  _289
REMARK  120  A    between atoms: _289  and  _290
REMARK  121  A    between atoms: _290  and  _291
REMARK  122  A    between atoms: _291  and  _292
REMARK  123  A    between atoms: _302  and  _303
REMARK  124  A    between atoms: _308  and  _310
REMARK  125  A    between atoms: _310  and  _311
REMARK  126  A    between atoms: _310  and  _313
REMARK  127  A    between atoms: _313  and  _314
REMARK  128  A    between atoms: _317  and  _319
REMARK  129  A    between atoms: _319  and  _320
REMARK  130  A    between atoms: _319  and  _322
REMARK  131  A    between atoms: _322  and  _323
REMARK  132  A    between atoms: _326  and  _328
REMARK  133  A    between atoms: _328  and  _329
REMARK  134  A    between atoms: _328  and  _331
REMARK  135  A    between atoms: _331  and  _332
REMARK  136  A    between atoms: _335  and  _337
REMARK  137  A    between atoms: _337  and  _338
REMARK  138  A    between atoms: _337  and  _340
REMARK  139  A    between atoms: _340  and  _341
REMARK  140  A    between atoms: _344  and  _346
REMARK  141  A    between atoms: _346  and  _347
REMARK  142  A    between atoms: _346  and  _349
REMARK  143  A    between atoms: _349  and  _350
REMARK  144  A    between atoms: _353  and  _355
REMARK  145  A    between atoms: _355  and  _356
REMARK  146  A    between atoms: _358  and  _360
REMARK  147  A    between atoms: _360  and  _361
REMARK  148  A    between atoms: _364  and  _366
REMARK  149  A    between atoms: _366  and  _367
REMARK  150  A    between atoms: _366  and  _369
REMARK  151  A    between atoms: _369  and  _370
REMARK  152  A    between atoms: _373  and  _375
REMARK  153  A    between atoms: _375  and  _376
REMARK  154  A    between atoms: _375  and  _378
REMARK  155  A    between atoms: _378  and  _379
REMARK  156  A    between atoms: _382  and  _384
REMARK  157  A    between atoms: _384  and  _385
REMARK  158  A    between atoms: _384  and  _387
REMARK  159  A    between atoms: _387  and  _388
REMARK  160  A    between atoms: _391  and  _393
REMARK  161  A    between atoms: _393  and  _394
REMARK  162  A    between atoms: _393  and  _396
REMARK  163  A    between atoms: _399  and  _401
REMARK  164  A    between atoms: _401  and  _402
REMARK  165  A    between atoms: _401  and  _404
REMARK  166  A    between atoms: _404  and  _405
REMARK  167  A    between atoms: _405  and  _406
REMARK  168  A    between atoms: _406  and  _407
REMARK  169  A    between atoms: _407  and  _408
REMARK  170  A    between atoms: _412  and  _414
REMARK  171  A    between atoms: _414  and  _415
REMARK  172  A    between atoms: _414  and  _417
REMARK  173  A    between atoms: _417  and  _418
REMARK  174  A    between atoms: _418  and  _419
REMARK  175  A    between atoms: _421  and  _423
REMARK  176  A    between atoms: _423  and  _424
REMARK  177  A    between atoms: _423  and  _426
REMARK  178  A    between atoms: _426  and  _427
REMARK  179  A    between atoms: _430  and  _432
REMARK  180  A    between atoms: _432  and  _433
REMARK  181  A    between atoms: _435  and  _437
REMARK  182  A    between atoms: _437  and  _438
REMARK  183  A    between atoms: _440  and  _442
REMARK  184  A    between atoms: _442  and  _443
REMARK  185  A    between atoms: _442  and  _445
REMARK  186  A    between atoms: _445  and  _446
REMARK  187  A    between atoms: _449  and  _451
REMARK  188  A    between atoms: _451  and  _452
REMARK  189  A    between atoms: _454  and  _456
REMARK  190  A    between atoms: _456  and  _457
REMARK  191  A    between atoms: _459  and  _461
REMARK  192  A    between atoms: _461  and  _462
REMARK  193  A    between atoms: _461  and  _464
REMARK  194  A    between atoms: _464  and  _465
REMARK  195  A    between atoms: _471  and  _473
REMARK  196  A    between atoms: _473  and  _474
REMARK  197  A    between atoms: _473  and  _476
REMARK  198  A    between atoms: _476  and  _477
REMARK  199  A    between atoms: _480  and  _482
REMARK  200  A    between atoms: _482  and  _483
REMARK  201  A    between atoms: _482  and  _485
REMARK  202  A    between atoms: _488  and  _490
REMARK  203  A    between atoms: _490  and  _491
REMARK  204  A    between atoms: _490  and  _493
REMARK  205  A    between atoms: _493  and  _494
REMARK  206  A    between atoms: _497  and  _499
REMARK  207  A    between atoms: _499  and  _500
REMARK  208  A    between atoms: _499  and  _502
REMARK  209  A    between atoms: _502  and  _503
REMARK  210  A    between atoms: _507  and  _508
REMARK  211  A    between atoms: _513  and  _515
REMARK  212  A    between atoms: _515  and  _516
REMARK  213  A    between atoms: _515  and  _518
REMARK  214  A    between atoms: _518  and  _519
REMARK  215  A    between atoms: _522  and  _524
REMARK  216  A    between atoms: _524  and  _525
REMARK  217  A    between atoms: _524  and  _527
REMARK  218  A    between atoms: _527  and  _528
REMARK  219  A    between atoms: _533  and  _535
REMARK  220  A    between atoms: _535  and  _536
REMARK  221  A    between atoms: _535  and  _538
REMARK  222  A    between atoms: _541  and  _543
REMARK  223  A    between atoms: _543  and  _544
REMARK  224  A    between atoms: _543  and  _546
REMARK  225  A    between atoms: _546  and  _547
REMARK  226  A    between atoms: _550  and  _552
REMARK  227  A    between atoms: _552  and  _553
REMARK  228  A    between atoms: _555  and  _557
REMARK  229  A    between atoms: _557  and  _558
REMARK  230  A    between atoms: _557  and  _560
REMARK  231  A    between atoms: _560  and  _561
REMARK  232  A    between atoms: _561  and  _562
REMARK  233  A    between atoms: _562  and  _563
REMARK                            x       y       z     vdW  Elec       q    Type
REMARK                         _______ _______ _______ _____ _____    ______ ____
ROOT
ATOM      1  O   HOH     1      21.971  23.947   4.877  0.00  0.00    +0.000 OA
ENDROOT
TORSDOF 0
REMARK  Name = ../refined-set-2016/2xye/2xye_pocket.pdb
REMARK  233 active torsions:
REMARK  status: ('A' for Active; 'I' for Inactive)
REMARK    1  A    between atoms: _1  and  _3
REMARK    2  A    between atoms: _3  and  _4
REMARK    3  A    between atoms: _3  and  _6
REMARK    4  A    between atoms: _6  and  _7
REMARK    5  A    between atoms: _7  and  _8
REMARK    6  A    between atoms: _8  and  _9
REMARK    7  A    between atoms: _18  and  _20
REMARK    8  A    between atoms: _20  and  _21
REMARK    9  A    between atoms: _20  and  _23
REMARK   10  A    between atoms: _23  and  _24
REMARK   11  A    between atoms: _27  and  _29
REMARK   12  A    between atoms: _29  and  _30
REMARK   13  A    between atoms: _29  and  _32
REMARK   14  A    between atoms: _32  and  _33
REMARK   15  A    between atoms: _36  and  _38
REMARK   16  A    between atoms: _38  and  _39
REMARK   17  A    between atoms: _38  and  _41
REMARK   18  A    between atoms: _41  and  _42
REMARK   19  A    between atoms: _45  and  _47
REMARK   20  A    between atoms: _47  and  _48
REMARK   21  A    between atoms: _47  and  _50
REMARK   22  A    between atoms: _50  and  _51
REMARK   23  A    between atoms: _54  and  _56
REMARK   24  A    between atoms: _56  and  _57
REMARK   25  A    between atoms: _59  and  _61
REMARK   26  A    between atoms: _61  and  _62
REMARK   27  A    between atoms: _65  and  _67
REMARK   28  A    between atoms: _67  and  _68
REMARK   29  A    between atoms: _67  and  _70
REMARK   30  A    between atoms: _70  and  _71
REMARK   31  A    between atoms: _74  and  _76
REMARK   32  A    between atoms: _76  and  _77
REMARK   33  A    between atoms: _76  and  _79
REMARK   34  A    between atoms: _79  and  _80
REMARK   35  A    between atoms: _83  and  _85
REMARK   36  A    between atoms: _85  and  _86
REMARK   37  A    between atoms: _85  and  _88
REMARK   38  A    between atoms: _88  and  _89
REMARK   39  A    between atoms: _92  and  _94
REMARK   40  A    between atoms: _94  and  _95
REMARK   41  A    between atoms: _94  and  _97
REMARK   42  A    between atoms: _100  and  _102
REMARK   43  A    between atoms: _102  and  _103
REMARK   44  A    between atoms: _102  and  _105
REMARK   45  A    between atoms: _105  and  _106
REMARK   46  A    between atoms: _106  and  _107
REMARK   47  A    between atoms: _107  and  _108
REMARK   48  A    between atoms: _108  and  _109
REMARK   49  A    between atoms: _113  and  _115
REMARK   50  A    between atoms: _115  and  _116
REMARK   51  A    between atoms: _115  and  _118
REMARK   52  A    between atoms: _118  and  _119
REMARK   53  A    between atoms: _119  and  _120
REMARK   54  A    between atoms: _122  and  _124
REMARK   55  A    between atoms: _124  and  _125
REMARK   56  A    between atoms: _124  and  _127
REMARK   57  A    between atoms: _127  and  _128
REMARK   58  A    between atoms: _131  and  _133
REMARK   59  A    between atoms: _133  and  _134
REMARK   60  A    between atoms: _136  and  _138
REMARK   61  A    between atoms: _138  and  _139
REMARK   62  A    between atoms: _141  and  _143
REMARK   63  A    between atoms: _143  and  _144
REMARK   64  A    between atoms: _143  and  _146
REMARK   65  A    between atoms: _146  and  _147
REMARK   66  A    between atoms: _150  and  _152
REMARK   67  A    between atoms: _152  and  _153
REMARK   68  A    between atoms: _155  and  _157
REMARK   69  A    between atoms: _157  and  _158
REMARK   70  A    between atoms: _160  and  _162
REMARK   71  A    between atoms: _162  and  _163
REMARK   72  A    between atoms: _162  and  _165
REMARK   73  A    between atoms: _165  and  _166
REMARK   74  A    between atoms: _172  and  _174
REMARK   75  A    between atoms: _174  and  _175
REMARK   76  A    between atoms: _174  and  _177
REMARK   77  A    between atoms: _177  and  _178
REMARK   78  A    between atoms: _181  and  _183
REMARK   79  A    between atoms: _183  and  _184
REMARK   80  A    between atoms: _183  and  _186
REMARK   81  A    between atoms: _189  and  _191
REMARK   82  A    between atoms: _191  and  _192
REMARK   83  A    between atoms: _191  and  _194
REMARK   84  A    between atoms: _194  and  _195
REMARK   85  A    between atoms: _198  and  _200
REMARK   86  A    between atoms: _200  and  _201
REMARK   87  A    between atoms: _200  and  _203
REMARK   88  A    between atoms: _203  and  _204
REMARK   89  A    between atoms: _208  and  _209
REMARK   90  A    between atoms: _214  and  _216
REMARK   91  A    between atoms: _216  and  _217
REMARK   92  A    between atoms: _216  and  _219
REMARK   93  A    between atoms: _219  and  _220
REMARK   94  A    between atoms: _223  and  _225
REMARK   95  A    between atoms: _225  and  _226
REMARK   96  A    between atoms: _225  and  _228
REMARK   97  A    between atoms: _228  and  _229
REMARK   98  A    between atoms: _234  and  _236
REMARK   99  A    between atoms: _236  and  _237
REMARK  100  A    between atoms: _236  and  _239
REMARK  101  A    between atoms: _242  and  _244
REMARK  102  A    between atoms: _244  and  _245
REMARK  103  A    between atoms: _244  and  _247
REMARK  104  A    between atoms: _247  and  _248
REMARK  105  A    between atoms: _251  and  _253
REMARK  106  A    between atoms: _253  and  _254
REMARK  107  A    between atoms: _256  and  _258
REMARK  108  A    between atoms: _258  and  _259
REMARK  109  A    between atoms: _258  and  _261
REMARK  110  A    between atoms: _261  and  _262
REMARK  111  A    between atoms: _262  and  _263
REMARK  112  A    between atoms: _263  and  _264
REMARK  113  A    between atoms: _273  and  _275
REMARK  114  A    between atoms: _275  and  _276
REMARK  115  A    between atoms: _275  and  _278
REMARK  116  A    between atoms: _278  and  _279
REMARK  117  A    between atoms: _284  and  _286
REMARK  118  A    between atoms: _286  and  _287
REMARK  119  A    between atoms: _286  and  _289
REMARK  120  A    between atoms: _289  and  _290
REMARK  121  A    between atoms: _290  and  _291
REMARK  122  A    between atoms: _291  and  _292
REMARK  123  A    between atoms: _302  and  _303
REMARK  124  A    between atoms: _308  and  _310
REMARK  125  A    between atoms: _310  and  _311
REMARK  126  A    between atoms: _310  and  _313
REMARK  127  A    between atoms: _313  and  _314
REMARK  128  A    between atoms: _317  and  _319
REMARK  129  A    between atoms: _319  and  _320
REMARK  130  A    between atoms: _319  and  _322
REMARK  131  A    between atoms: _322  and  _323
REMARK  132  A    between atoms: _326  and  _328
REMARK  133  A    between atoms: _328  and  _329
REMARK  134  A    between atoms: _328  and  _331
REMARK  135  A    between atoms: _331  and  _332
REMARK  136  A    between atoms: _335  and  _337
REMARK  137  A    between atoms: _337  and  _338
REMARK  138  A    between atoms: _337  and  _340
REMARK  139  A    between atoms: _340  and  _341
REMARK  140  A    between atoms: _344  and  _346
REMARK  141  A    between atoms: _346  and  _347
REMARK  142  A    between atoms: _346  and  _349
REMARK  143  A    between atoms: _349  and  _350
REMARK  144  A    between atoms: _353  and  _355
REMARK  145  A    between atoms: _355  and  _356
REMARK  146  A    between atoms: _358  and  _360
REMARK  147  A    between atoms: _360  and  _361
REMARK  148  A    between atoms: _364  and  _366
REMARK  149  A    between atoms: _366  and  _367
REMARK  150  A    between atoms: _366  and  _369
REMARK  151  A    between atoms: _369  and  _370
REMARK  152  A    between atoms: _373  and  _375
REMARK  153  A    between atoms: _375  and  _376
REMARK  154  A    between atoms: _375  and  _378
REMARK  155  A    between atoms: _378  and  _379
REMARK  156  A    between atoms: _382  and  _384
REMARK  157  A    between atoms: _384  and  _385
REMARK  158  A    between atoms: _384  and  _387
REMARK  159  A    between atoms: _387  and  _388
REMARK  160  A    between atoms: _391  and  _393
REMARK  161  A    between atoms: _393  and  _394
REMARK  162  A    between atoms: _393  and  _396
REMARK  163  A    between atoms: _399  and  _401
REMARK  164  A    between atoms: _401  and  _402
REMARK  165  A    between atoms: _401  and  _404
REMARK  166  A    between atoms: _404  and  _405
REMARK  167  A    between atoms: _405  and  _406
REMARK  168  A    between atoms: _406  and  _407
REMARK  169  A    between atoms: _407  and  _408
REMARK  170  A    between atoms: _412  and  _414
REMARK  171  A    between atoms: _414  and  _415
REMARK  172  A    between atoms: _414  and  _417
REMARK  173  A    between atoms: _417  and  _418
REMARK  174  A    between atoms: _418  and  _419
REMARK  175  A    between atoms: _421  and  _423
REMARK  176  A    between atoms: _423  and  _424
REMARK  177  A    between atoms: _423  and  _426
REMARK  178  A    between atoms: _426  and  _427
REMARK  179  A    between atoms: _430  and  _432
REMARK  180  A    between atoms: _432  and  _433
REMARK  181  A    between atoms: _435  and  _437
REMARK  182  A    between atoms: _437  and  _438
REMARK  183  A    between atoms: _440  and  _442
REMARK  184  A    between atoms: _442  and  _443
REMARK  185  A    between atoms: _442  and  _445
REMARK  186  A    between atoms: _445  and  _446
REMARK  187  A    between atoms: _449  and  _451
REMARK  188  A    between atoms: _451  and  _452
REMARK  189  A    between atoms: _454  and  _456
REMARK  190  A    between atoms: _456  and  _457
REMARK  191  A    between atoms: _459  and  _461
REMARK  192  A    between atoms: _461  and  _462
REMARK  193  A    between atoms: _461  and  _464
REMARK  194  A    between atoms: _464  and  _465
REMARK  195  A    between atoms: _471  and  _473
REMARK  196  A    between atoms: _473  and  _474
REMARK  197  A    between atoms: _473  and  _476
REMARK  198  A    between atoms: _476  and  _477
REMARK  199  A    between atoms: _480  and  _482
REMARK  200  A    between atoms: _482  and  _483
REMARK  201  A    between atoms: _482  and  _485
REMARK  202  A    between atoms: _488  and  _490
REMARK  203  A    between atoms: _490  and  _491
REMARK  204  A    between atoms: _490  and  _493
REMARK  205  A    between atoms: _493  and  _494
REMARK  206  A    between atoms: _497  and  _499
REMARK  207  A    between atoms: _499  and  _500
REMARK  208  A    between atoms: _499  and  _502
REMARK  209  A    between atoms: _502  and  _503
REMARK  210  A    between atoms: _507  and  _508
REMARK  211  A    between atoms: _513  and  _515
REMARK  212  A    between atoms: _515  and  _516
REMARK  213  A    between atoms: _515  and  _518
REMARK  214  A    between atoms: _518  and  _519
REMARK  215  A    between atoms: _522  and  _524
REMARK  216  A    between atoms: _524  and  _525
REMARK  217  A    between atoms: _524  and  _527
REMARK  218  A    between atoms: _527  and  _528
REMARK  219  A    between atoms: _533  and  _535
REMARK  220  A    between atoms: _535  and  _536
REMARK  221  A    between atoms: _535  and  _538
REMARK  222  A    between atoms: _541  and  _543
REMARK  223  A    between atoms: _543  and  _544
REMARK  224  A    between atoms: _543  and  _546
REMARK  225  A    between atoms: _546  and  _547
REMARK  226  A    between atoms: _550  and  _552
REMARK  227  A    between atoms: _552  and  _553
REMARK  228  A    between atoms: _555  and  _557
REMARK  229  A    between atoms: _557  and  _558
REMARK  230  A    between atoms: _557  and  _560
REMARK  231  A    between atoms: _560  and  _561
REMARK  232  A    between atoms: _561  and  _562
REMARK  233  A    between atoms: _562  and  _563
REMARK                            x       y       z     vdW  Elec       q    Type
REMARK                         _______ _______ _______ _____ _____    ______ ____
ROOT
ATOM      1  O   HOH     1      11.293  20.834   6.524  0.00  0.00    +0.000 OA
ENDROOT
TORSDOF 0
