REMARK  Name = ../refined-set-2016/1ttm/1ttm_pocket.pdb
REMARK  154 active torsions:
REMARK  status: ('A' for Active; 'I' for Inactive)
REMARK    1  A    between atoms: _1  and  _3
REMARK    2  A    between atoms: _3  and  _4
REMARK    3  A    between atoms: _3  and  _6
REMARK    4  A    between atoms: _6  and  _7
REMARK    5  A    between atoms: _17  and  _19
REMARK    6  A    between atoms: _19  and  _20
REMARK    7  A    between atoms: _19  and  _22
REMARK    8  A    between atoms: _22  and  _23
REMARK    9  A    between atoms: _28  and  _29
REMARK   10  A    between atoms: _31  and  _33
REMARK   11  A    between atoms: _33  and  _34
REMARK   12  A    between atoms: _33  and  _36
REMARK   13  A    between atoms: _36  and  _37
REMARK   14  A    between atoms: _40  and  _41
REMARK   15  A    between atoms: _46  and  _48
REMARK   16  A    between atoms: _48  and  _49
REMARK   17  A    between atoms: _48  and  _51
REMARK   18  A    between atoms: _51  and  _52
REMARK   19  A    between atoms: _57  and  _59
REMARK   20  A    between atoms: _59  and  _60
REMARK   21  A    between atoms: _59  and  _62
REMARK   22  A    between atoms: _62  and  _63
REMARK   23  A    between atoms: _68  and  _70
REMARK   24  A    between atoms: _70  and  _71
REMARK   25  A    between atoms: _70  and  _73
REMARK   26  A    between atoms: _73  and  _74
REMARK   27  A    between atoms: _79  and  _81
REMARK   28  A    between atoms: _81  and  _82
REMARK   29  A    between atoms: _81  and  _84
REMARK   30  A    between atoms: _84  and  _85
REMARK   31  A    between atoms: _85  and  _86
REMARK   32  A    between atoms: _89  and  _91
REMARK   33  A    between atoms: _91  and  _92
REMARK   34  A    between atoms: _91  and  _94
REMARK   35  A    between atoms: _94  and  _95
REMARK   36  A    between atoms: _98  and  _100
REMARK   37  A    between atoms: _100  and  _101
REMARK   38  A    between atoms: _100  and  _103
REMARK   39  A    between atoms: _103  and  _104
REMARK   40  A    between atoms: _104  and  _105
REMARK   41  A    between atoms: _110  and  _112
REMARK   42  A    between atoms: _112  and  _113
REMARK   43  A    between atoms: _112  and  _115
REMARK   44  A    between atoms: _115  and  _116
REMARK   45  A    between atoms: _122  and  _124
REMARK   46  A    between atoms: _135  and  _138
REMARK   47  A    between atoms: _138  and  _139
REMARK   48  A    between atoms: _147  and  _148
REMARK   49  A    between atoms: _156  and  _158
REMARK   50  A    between atoms: _158  and  _159
REMARK   51  A    between atoms: _158  and  _161
REMARK   52  A    between atoms: _161  and  _162
REMARK   53  A    between atoms: _162  and  _163
REMARK   54  A    between atoms: _166  and  _168
REMARK   55  A    between atoms: _168  and  _169
REMARK   56  A    between atoms: _168  and  _171
REMARK   57  A    between atoms: _171  and  _172
REMARK   58  A    between atoms: _177  and  _179
REMARK   59  A    between atoms: _179  and  _180
REMARK   60  A    between atoms: _179  and  _182
REMARK   61  A    between atoms: _182  and  _183
REMARK   62  A    between atoms: _183  and  _184
REMARK   63  A    between atoms: _187  and  _189
REMARK   64  A    between atoms: _189  and  _190
REMARK   65  A    between atoms: _189  and  _192
REMARK   66  A    between atoms: _192  and  _193
REMARK   67  A    between atoms: _196  and  _198
REMARK   68  A    between atoms: _198  and  _199
REMARK   69  A    between atoms: _198  and  _201
REMARK   70  A    between atoms: _201  and  _202
REMARK   71  A    between atoms: _203  and  ZN_434
REMARK   72  A    between atoms: _207  and  _209
REMARK   73  A    between atoms: _209  and  _210
REMARK   74  A    between atoms: _209  and  _212
REMARK   75  A    between atoms: _212  and  _213
REMARK   76  A    between atoms: _216  and  _218
REMARK   77  A    between atoms: _218  and  _219
REMARK   78  A    between atoms: _218  and  _221
REMARK   79  A    between atoms: _224  and  _226
REMARK   80  A    between atoms: _226  and  _227
REMARK   81  A    between atoms: _226  and  _229
REMARK   82  A    between atoms: _229  and  _230
REMARK   83  A    between atoms: _235  and  _237
REMARK   84  A    between atoms: _237  and  _238
REMARK   85  A    between atoms: _237  and  _240
REMARK   86  A    between atoms: _240  and  _241
REMARK   87  A    between atoms: _251  and  _253
REMARK   88  A    between atoms: _253  and  _254
REMARK   89  A    between atoms: _253  and  _256
REMARK   90  A    between atoms: _256  and  _257
REMARK   91  A    between atoms: _263  and  _265
REMARK   92  A    between atoms: _265  and  _266
REMARK   93  A    between atoms: _268  and  _270
REMARK   94  A    between atoms: _270  and  _271
REMARK   95  A    between atoms: _270  and  _273
REMARK   96  A    between atoms: _276  and  _278
REMARK   97  A    between atoms: _278  and  _279
REMARK   98  A    between atoms: _278  and  _281
REMARK   99  A    between atoms: _281  and  _282
REMARK  100  A    between atoms: _285  and  _287
REMARK  101  A    between atoms: _287  and  _288
REMARK  102  A    between atoms: _291  and  _293
REMARK  103  A    between atoms: _293  and  _294
REMARK  104  A    between atoms: _293  and  _296
REMARK  105  A    between atoms: _299  and  _301
REMARK  106  A    between atoms: _301  and  _302
REMARK  107  A    between atoms: _301  and  _304
REMARK  108  A    between atoms: _304  and  _305
REMARK  109  A    between atoms: _308  and  _310
REMARK  110  A    between atoms: _310  and  _311
REMARK  111  A    between atoms: _310  and  _313
REMARK  112  A    between atoms: _313  and  _314
REMARK  113  A    between atoms: _316  and  _318
REMARK  114  A    between atoms: _318  and  _319
REMARK  115  A    between atoms: _318  and  _321
REMARK  116  A    between atoms: _321  and  _322
REMARK  117  A    between atoms: _325  and  _327
REMARK  118  A    between atoms: _327  and  _328
REMARK  119  A    between atoms: _327  and  _330
REMARK  120  A    between atoms: _330  and  _331
REMARK  121  A    between atoms: _334  and  _336
REMARK  122  A    between atoms: _336  and  _337
REMARK  123  A    between atoms: _336  and  _339
REMARK  124  A    between atoms: _339  and  _340
REMARK  125  A    between atoms: _344  and  _345
REMARK  126  A    between atoms: _351  and  _352
REMARK  127  A    between atoms: _357  and  _359
REMARK  128  A    between atoms: _359  and  _360
REMARK  129  A    between atoms: _359  and  _362
REMARK  130  A    between atoms: _362  and  _363
REMARK  131  A    between atoms: _366  and  _368
REMARK  132  A    between atoms: _368  and  _369
REMARK  133  A    between atoms: _368  and  _371
REMARK  134  A    between atoms: _371  and  _372
REMARK  135  A    between atoms: _375  and  _377
REMARK  136  A    between atoms: _377  and  _378
REMARK  137  A    between atoms: _377  and  _380
REMARK  138  A    between atoms: _382  and  _384
REMARK  139  A    between atoms: _384  and  _385
REMARK  140  A    between atoms: _384  and  _387
REMARK  141  A    between atoms: _390  and  _392
REMARK  142  A    between atoms: _392  and  _393
REMARK  143  A    between atoms: _392  and  _395
REMARK  144  A    between atoms: _395  and  _396
REMARK  145  A    between atoms: _406  and  _408
REMARK  146  A    between atoms: _408  and  _409
REMARK  147  A    between atoms: _408  and  _411
REMARK  148  A    between atoms: _411  and  _412
REMARK  149  A    between atoms: _417  and  _419
REMARK  150  A    between atoms: _419  and  _420
REMARK  151  A    between atoms: _419  and  _422
REMARK  152  A    between atoms: _422  and  _423
REMARK  153  A    between atoms: _423  and  _424
REMARK  154  A    between atoms: _424  and  _425
REMARK                            x       y       z     vdW  Elec       q    Type
REMARK                         _______ _______ _______ _____ _____    ______ ____
ROOT
ATOM      1  CG  TRP A   1      32.249  28.919  15.647  0.00  0.00    -0.002 A 
ATOM      2  CD1 TRP A   1      32.343  30.097  16.318  0.00  0.00    +0.068 A 
ATOM      3  NE1 TRP A   1      31.108  30.694  16.404  0.00  0.00    -0.352 N 
ATOM      4  HE1 TRP A   1      30.906  31.601  16.871  0.00  0.00    +0.166 HD
ATOM      5  CE2 TRP A   1      30.188  29.900  15.775  0.00  0.00    +0.056 A 
ATOM      6  CZ2 TRP A   1      28.812  30.078  15.598  0.00  0.00    +0.017 A 
ATOM      7  CH2 TRP A   1      28.128  29.105  14.918  0.00  0.00    +0.001 A 
ATOM      8  CZ3 TRP A   1      28.781  27.966  14.413  0.00  0.00    +0.000 A 
ATOM      9  CE3 TRP A   1      30.151  27.788  14.589  0.00  0.00    +0.001 A 
ATOM     10  CD2 TRP A   1      30.873  28.770  15.282  0.00  0.00    +0.013 A 
ENDROOT
BRANCH   1  11
ATOM     11  CB  TRP A   1      33.348  27.948  15.389  0.00  0.00    +0.053 C 
BRANCH  11  12
ATOM     12  CA  TRP A   1      34.133  28.194  14.113  0.00  0.00    +0.137 C 
BRANCH  12  13
ATOM     13  N   TRP A   1      34.891  29.456  14.215  0.00  0.00    -0.239 NA
ATOM     14  H   TRP A   1      34.818  30.021  15.085  0.00  0.00    +0.142 HD
ENDBRANCH  12  13
BRANCH  12  15
ATOM     15  C   TRP A   1      33.153  28.090  12.942  0.00  0.00    +0.224 C 
ATOM     16  O   TRP A   1      32.620  29.090  12.502  0.00  0.00    -0.287 OA
ENDBRANCH  12  15
ENDBRANCH  11  12
ENDBRANCH   1  11
TORSDOF 4
REMARK  Name = ../refined-set-2016/1ttm/1ttm_pocket.pdb
REMARK  154 active torsions:
REMARK  status: ('A' for Active; 'I' for Inactive)
REMARK    1  A    between atoms: _1  and  _3
REMARK    2  A    between atoms: _3  and  _4
REMARK    3  A    between atoms: _3  and  _6
REMARK    4  A    between atoms: _6  and  _7
REMARK    5  A    between atoms: _17  and  _19
REMARK    6  A    between atoms: _19  and  _20
REMARK    7  A    between atoms: _19  and  _22
REMARK    8  A    between atoms: _22  and  _23
REMARK    9  A    between atoms: _28  and  _29
REMARK   10  A    between atoms: _31  and  _33
REMARK   11  A    between atoms: _33  and  _34
REMARK   12  A    between atoms: _33  and  _36
REMARK   13  A    between atoms: _36  and  _37
REMARK   14  A    between atoms: _40  and  _41
REMARK   15  A    between atoms: _46  and  _48
REMARK   16  A    between atoms: _48  and  _49
REMARK   17  A    between atoms: _48  and  _51
REMARK   18  A    between atoms: _51  and  _52
REMARK   19  A    between atoms: _57  and  _59
REMARK   20  A    between atoms: _59  and  _60
REMARK   21  A    between atoms: _59  and  _62
REMARK   22  A    between atoms: _62  and  _63
REMARK   23  A    between atoms: _68  and  _70
REMARK   24  A    between atoms: _70  and  _71
REMARK   25  A    between atoms: _70  and  _73
REMARK   26  A    between atoms: _73  and  _74
REMARK   27  A    between atoms: _79  and  _81
REMARK   28  A    between atoms: _81  and  _82
REMARK   29  A    between atoms: _81  and  _84
REMARK   30  A    between atoms: _84  and  _85
REMARK   31  A    between atoms: _85  and  _86
REMARK   32  A    between atoms: _89  and  _91
REMARK   33  A    between atoms: _91  and  _92
REMARK   34  A    between atoms: _91  and  _94
REMARK   35  A    between atoms: _94  and  _95
REMARK   36  A    between atoms: _98  and  _100
REMARK   37  A    between atoms: _100  and  _101
REMARK   38  A    between atoms: _100  and  _103
REMARK   39  A    between atoms: _103  and  _104
REMARK   40  A    between atoms: _104  and  _105
REMARK   41  A    between atoms: _110  and  _112
REMARK   42  A    between atoms: _112  and  _113
REMARK   43  A    between atoms: _112  and  _115
REMARK   44  A    between atoms: _115  and  _116
REMARK   45  A    between atoms: _122  and  _124
REMARK   46  A    between atoms: _135  and  _138
REMARK   47  A    between atoms: _138  and  _139
REMARK   48  A    between atoms: _147  and  _148
REMARK   49  A    between atoms: _156  and  _158
REMARK   50  A    between atoms: _158  and  _159
REMARK   51  A    between atoms: _158  and  _161
REMARK   52  A    between atoms: _161  and  _162
REMARK   53  A    between atoms: _162  and  _163
REMARK   54  A    between atoms: _166  and  _168
REMARK   55  A    between atoms: _168  and  _169
REMARK   56  A    between atoms: _168  and  _171
REMARK   57  A    between atoms: _171  and  _172
REMARK   58  A    between atoms: _177  and  _179
REMARK   59  A    between atoms: _179  and  _180
REMARK   60  A    between atoms: _179  and  _182
REMARK   61  A    between atoms: _182  and  _183
REMARK   62  A    between atoms: _183  and  _184
REMARK   63  A    between atoms: _187  and  _189
REMARK   64  A    between atoms: _189  and  _190
REMARK   65  A    between atoms: _189  and  _192
REMARK   66  A    between atoms: _192  and  _193
REMARK   67  A    between atoms: _196  and  _198
REMARK   68  A    between atoms: _198  and  _199
REMARK   69  A    between atoms: _198  and  _201
REMARK   70  A    between atoms: _201  and  _202
REMARK   71  A    between atoms: _203  and  ZN_434
REMARK   72  A    between atoms: _207  and  _209
REMARK   73  A    between atoms: _209  and  _210
REMARK   74  A    between atoms: _209  and  _212
REMARK   75  A    between atoms: _212  and  _213
REMARK   76  A    between atoms: _216  and  _218
REMARK   77  A    between atoms: _218  and  _219
REMARK   78  A    between atoms: _218  and  _221
REMARK   79  A    between atoms: _224  and  _226
REMARK   80  A    between atoms: _226  and  _227
REMARK   81  A    between atoms: _226  and  _229
REMARK   82  A    between atoms: _229  and  _230
REMARK   83  A    between atoms: _235  and  _237
REMARK   84  A    between atoms: _237  and  _238
REMARK   85  A    between atoms: _237  and  _240
REMARK   86  A    between atoms: _240  and  _241
REMARK   87  A    between atoms: _251  and  _253
REMARK   88  A    between atoms: _253  and  _254
REMARK   89  A    between atoms: _253  and  _256
REMARK   90  A    between atoms: _256  and  _257
REMARK   91  A    between atoms: _263  and  _265
REMARK   92  A    between atoms: _265  and  _266
REMARK   93  A    between atoms: _268  and  _270
REMARK   94  A    between atoms: _270  and  _271
REMARK   95  A    between atoms: _270  and  _273
REMARK   96  A    between atoms: _276  and  _278
REMARK   97  A    between atoms: _278  and  _279
REMARK   98  A    between atoms: _278  and  _281
REMARK   99  A    between atoms: _281  and  _282
REMARK  100  A    between atoms: _285  and  _287
REMARK  101  A    between atoms: _287  and  _288
REMARK  102  A    between atoms: _291  and  _293
REMARK  103  A    between atoms: _293  and  _294
REMARK  104  A    between atoms: _293  and  _296
REMARK  105  A    between atoms: _299  and  _301
REMARK  106  A    between atoms: _301  and  _302
REMARK  107  A    between atoms: _301  and  _304
REMARK  108  A    between atoms: _304  and  _305
REMARK  109  A    between atoms: _308  and  _310
REMARK  110  A    between atoms: _310  and  _311
REMARK  111  A    between atoms: _310  and  _313
REMARK  112  A    between atoms: _313  and  _314
REMARK  113  A    between atoms: _316  and  _318
REMARK  114  A    between atoms: _318  and  _319
REMARK  115  A    between atoms: _318  and  _321
REMARK  116  A    between atoms: _321  and  _322
REMARK  117  A    between atoms: _325  and  _327
REMARK  118  A    between atoms: _327  and  _328
REMARK  119  A    between atoms: _327  and  _330
REMARK  120  A    between atoms: _330  and  _331
REMARK  121  A    between atoms: _334  and  _336
REMARK  122  A    between atoms: _336  and  _337
REMARK  123  A    between atoms: _336  and  _339
REMARK  124  A    between atoms: _339  and  _340
REMARK  125  A    between atoms: _344  and  _345
REMARK  126  A    between atoms: _351  and  _352
REMARK  127  A    between atoms: _357  and  _359
REMARK  128  A    between atoms: _359  and  _360
REMARK  129  A    between atoms: _359  and  _362
REMARK  130  A    between atoms: _362  and  _363
REMARK  131  A    between atoms: _366  and  _368
REMARK  132  A    between atoms: _368  and  _369
REMARK  133  A    between atoms: _368  and  _371
REMARK  134  A    between atoms: _371  and  _372
REMARK  135  A    between atoms: _375  and  _377
REMARK  136  A    between atoms: _377  and  _378
REMARK  137  A    between atoms: _377  and  _380
REMARK  138  A    between atoms: _382  and  _384
REMARK  139  A    between atoms: _384  and  _385
REMARK  140  A    between atoms: _384  and  _387
REMARK  141  A    between atoms: _390  and  _392
REMARK  142  A    between atoms: _392  and  _393
REMARK  143  A    between atoms: _392  and  _395
REMARK  144  A    between atoms: _395  and  _396
REMARK  145  A    between atoms: _406  and  _408
REMARK  146  A    between atoms: _408  and  _409
REMARK  147  A    between atoms: _408  and  _411
REMARK  148  A    between atoms: _411  and  _412
REMARK  149  A    between atoms: _417  and  _419
REMARK  150  A    between atoms: _419  and  _420
REMARK  151  A    between atoms: _419  and  _422
REMARK  152  A    between atoms: _422  and  _423
REMARK  153  A    between atoms: _423  and  _424
REMARK  154  A    between atoms: _424  and  _425
REMARK                            x       y       z     vdW  Elec       q    Type
REMARK                         _______ _______ _______ _____ _____    ______ ____
ROOT
ATOM      1  CG  TYR A   1      28.179  24.023  10.694  0.00  0.00    -0.020 A 
ATOM      2  CD2 TYR A   1      27.802  23.106  11.677  0.00  0.00    -0.001 A 
ATOM      3  CE2 TYR A   1      26.915  23.464  12.690  0.00  0.00    +0.036 A 
ATOM      4  CZ  TYR A   1      26.397  24.751  12.723  0.00  0.00    +0.134 A 
ATOM      5  CE1 TYR A   1      26.758  25.676  11.759  0.00  0.00    +0.036 A 
ATOM      6  CD1 TYR A   1      27.644  25.309  10.752  0.00  0.00    -0.001 A 
ENDROOT
BRANCH   4   7
ATOM      7  OH  TYR A   1      25.518  25.117  13.713  0.00  0.00    -0.506 OA
ATOM      8  HH  TYR A   1      25.365  24.348  14.317  0.00  0.00    +0.292 HD
ENDBRANCH   4   7
BRANCH   1   9
ATOM      9  CB  TYR A   1      29.143  23.633   9.597  0.00  0.00    +0.051 C 
BRANCH   9  10
ATOM     10  CA  TYR A   1      30.614  23.665  10.024  0.00  0.00    +0.137 C 
BRANCH  10  11
ATOM     11  N   TYR A   1      31.071  25.039  10.142  0.00  0.00    -0.239 NA
ATOM     12  H   TYR A   1      31.119  25.639   9.294  0.00  0.00    +0.142 HD
ENDBRANCH  10  11
BRANCH  10  13
ATOM     13  C   TYR A   1      31.476  22.922   9.006  0.00  0.00    +0.224 C 
ATOM     14  O   TYR A   1      31.121  21.835   8.558  0.00  0.00    -0.287 OA
ENDBRANCH  10  13
ENDBRANCH   9  10
ENDBRANCH   1   9
TORSDOF 5
REMARK  Name = ../refined-set-2016/1ttm/1ttm_pocket.pdb
REMARK  154 active torsions:
REMARK  status: ('A' for Active; 'I' for Inactive)
REMARK    1  A    between atoms: _1  and  _3
REMARK    2  A    between atoms: _3  and  _4
REMARK    3  A    between atoms: _3  and  _6
REMARK    4  A    between atoms: _6  and  _7
REMARK    5  A    between atoms: _17  and  _19
REMARK    6  A    between atoms: _19  and  _20
REMARK    7  A    between atoms: _19  and  _22
REMARK    8  A    between atoms: _22  and  _23
REMARK    9  A    between atoms: _28  and  _29
REMARK   10  A    between atoms: _31  and  _33
REMARK   11  A    between atoms: _33  and  _34
REMARK   12  A    between atoms: _33  and  _36
REMARK   13  A    between atoms: _36  and  _37
REMARK   14  A    between atoms: _40  and  _41
REMARK   15  A    between atoms: _46  and  _48
REMARK   16  A    between atoms: _48  and  _49
REMARK   17  A    between atoms: _48  and  _51
REMARK   18  A    between atoms: _51  and  _52
REMARK   19  A    between atoms: _57  and  _59
REMARK   20  A    between atoms: _59  and  _60
REMARK   21  A    between atoms: _59  and  _62
REMARK   22  A    between atoms: _62  and  _63
REMARK   23  A    between atoms: _68  and  _70
REMARK   24  A    between atoms: _70  and  _71
REMARK   25  A    between atoms: _70  and  _73
REMARK   26  A    between atoms: _73  and  _74
REMARK   27  A    between atoms: _79  and  _81
REMARK   28  A    between atoms: _81  and  _82
REMARK   29  A    between atoms: _81  and  _84
REMARK   30  A    between atoms: _84  and  _85
REMARK   31  A    between atoms: _85  and  _86
REMARK   32  A    between atoms: _89  and  _91
REMARK   33  A    between atoms: _91  and  _92
REMARK   34  A    between atoms: _91  and  _94
REMARK   35  A    between atoms: _94  and  _95
REMARK   36  A    between atoms: _98  and  _100
REMARK   37  A    between atoms: _100  and  _101
REMARK   38  A    between atoms: _100  and  _103
REMARK   39  A    between atoms: _103  and  _104
REMARK   40  A    between atoms: _104  and  _105
REMARK   41  A    between atoms: _110  and  _112
REMARK   42  A    between atoms: _112  and  _113
REMARK   43  A    between atoms: _112  and  _115
REMARK   44  A    between atoms: _115  and  _116
REMARK   45  A    between atoms: _122  and  _124
REMARK   46  A    between atoms: _135  and  _138
REMARK   47  A    between atoms: _138  and  _139
REMARK   48  A    between atoms: _147  and  _148
REMARK   49  A    between atoms: _156  and  _158
REMARK   50  A    between atoms: _158  and  _159
REMARK   51  A    between atoms: _158  and  _161
REMARK   52  A    between atoms: _161  and  _162
REMARK   53  A    between atoms: _162  and  _163
REMARK   54  A    between atoms: _166  and  _168
REMARK   55  A    between atoms: _168  and  _169
REMARK   56  A    between atoms: _168  and  _171
REMARK   57  A    between atoms: _171  and  _172
REMARK   58  A    between atoms: _177  and  _179
REMARK   59  A    between atoms: _179  and  _180
REMARK   60  A    between atoms: _179  and  _182
REMARK   61  A    between atoms: _182  and  _183
REMARK   62  A    between atoms: _183  and  _184
REMARK   63  A    between atoms: _187  and  _189
REMARK   64  A    between atoms: _189  and  _190
REMARK   65  A    between atoms: _189  and  _192
REMARK   66  A    between atoms: _192  and  _193
REMARK   67  A    between atoms: _196  and  _198
REMARK   68  A    between atoms: _198  and  _199
REMARK   69  A    between atoms: _198  and  _201
REMARK   70  A    between atoms: _201  and  _202
REMARK   71  A    between atoms: _203  and  ZN_434
REMARK   72  A    between atoms: _207  and  _209
REMARK   73  A    between atoms: _209  and  _210
REMARK   74  A    between atoms: _209  and  _212
REMARK   75  A    between atoms: _212  and  _213
REMARK   76  A    between atoms: _216  and  _218
REMARK   77  A    between atoms: _218  and  _219
REMARK   78  A    between atoms: _218  and  _221
REMARK   79  A    between atoms: _224  and  _226
REMARK   80  A    between atoms: _226  and  _227
REMARK   81  A    between atoms: _226  and  _229
REMARK   82  A    between atoms: _229  and  _230
REMARK   83  A    between atoms: _235  and  _237
REMARK   84  A    between atoms: _237  and  _238
REMARK   85  A    between atoms: _237  and  _240
REMARK   86  A    between atoms: _240  and  _241
REMARK   87  A    between atoms: _251  and  _253
REMARK   88  A    between atoms: _253  and  _254
REMARK   89  A    between atoms: _253  and  _256
REMARK   90  A    between atoms: _256  and  _257
REMARK   91  A    between atoms: _263  and  _265
REMARK   92  A    between atoms: _265  and  _266
REMARK   93  A    between atoms: _268  and  _270
REMARK   94  A    between atoms: _270  and  _271
REMARK   95  A    between atoms: _270  and  _273
REMARK   96  A    between atoms: _276  and  _278
REMARK   97  A    between atoms: _278  and  _279
REMARK   98  A    between atoms: _278  and  _281
REMARK   99  A    between atoms: _281  and  _282
REMARK  100  A    between atoms: _285  and  _287
REMARK  101  A    between atoms: _287  and  _288
REMARK  102  A    between atoms: _291  and  _293
REMARK  103  A    between atoms: _293  and  _294
REMARK  104  A    between atoms: _293  and  _296
REMARK  105  A    between atoms: _299  and  _301
REMARK  106  A    between atoms: _301  and  _302
REMARK  107  A    between atoms: _301  and  _304
REMARK  108  A    between atoms: _304  and  _305
REMARK  109  A    between atoms: _308  and  _310
REMARK  110  A    between atoms: _310  and  _311
REMARK  111  A    between atoms: _310  and  _313
REMARK  112  A    between atoms: _313  and  _314
REMARK  113  A    between atoms: _316  and  _318
REMARK  114  A    between atoms: _318  and  _319
REMARK  115  A    between atoms: _318  and  _321
REMARK  116  A    between atoms: _321  and  _322
REMARK  117  A    between atoms: _325  and  _327
REMARK  118  A    between atoms: _327  and  _328
REMARK  119  A    between atoms: _327  and  _330
REMARK  120  A    between atoms: _330  and  _331
REMARK  121  A    between atoms: _334  and  _336
REMARK  122  A    between atoms: _336  and  _337
REMARK  123  A    between atoms: _336  and  _339
REMARK  124  A    between atoms: _339  and  _340
REMARK  125  A    between atoms: _344  and  _345
REMARK  126  A    between atoms: _351  and  _352
REMARK  127  A    between atoms: _357  and  _359
REMARK  128  A    between atoms: _359  and  _360
REMARK  129  A    between atoms: _359  and  _362
REMARK  130  A    between atoms: _362  and  _363
REMARK  131  A    between atoms: _366  and  _368
REMARK  132  A    between atoms: _368  and  _369
REMARK  133  A    between atoms: _368  and  _371
REMARK  134  A    between atoms: _371  and  _372
REMARK  135  A    between atoms: _375  and  _377
REMARK  136  A    between atoms: _377  and  _378
REMARK  137  A    between atoms: _377  and  _380
REMARK  138  A    between atoms: _382  and  _384
REMARK  139  A    between atoms: _384  and  _385
REMARK  140  A    between atoms: _384  and  _387
REMARK  141  A    between atoms: _390  and  _392
REMARK  142  A    between atoms: _392  and  _393
REMARK  143  A    between atoms: _392  and  _395
REMARK  144  A    between atoms: _395  and  _396
REMARK  145  A    between atoms: _406  and  _408
REMARK  146  A    between atoms: _408  and  _409
REMARK  147  A    between atoms: _408  and  _411
REMARK  148  A    between atoms: _411  and  _412
REMARK  149  A    between atoms: _417  and  _419
REMARK  150  A    between atoms: _419  and  _420
REMARK  151  A    between atoms: _419  and  _422
REMARK  152  A    between atoms: _422  and  _423
REMARK  153  A    between atoms: _423  and  _424
REMARK  154  A    between atoms: _424  and  _425
REMARK                            x       y       z     vdW  Elec       q    Type
REMARK                         _______ _______ _______ _____ _____    ______ ____
ROOT
ATOM      1  C   SER A   1      23.943  19.006  21.685  0.00  0.00    +0.244 C 
ATOM      2  O   SER A   1      24.912  19.716  21.435  0.00  0.00    -0.273 OA
ATOM      3  N   PRO A   2      23.319  18.299  20.729  0.00  0.00    -0.273 N 
ATOM      4  CA  PRO A   2      22.149  17.431  20.877  0.00  0.00    +0.140 C 
ATOM      5  CB  PRO A   2      21.599  17.382  19.463  0.00  0.00    +0.030 C 
ATOM      6  CG  PRO A   2      22.859  17.297  18.668  0.00  0.00    +0.024 C 
ATOM      7  CD  PRO A   2      23.725  18.372  19.313  0.00  0.00    +0.094 C 
ENDROOT
BRANCH   4   8
ATOM      8  C   PRO A   2      22.538  16.042  21.373  0.00  0.00    +0.227 C 
ATOM      9  O   PRO A   2      23.712  15.756  21.591  0.00  0.00    -0.286 OA
ENDBRANCH   4   8
BRANCH   1  10
ATOM     10  CA  SER A   1      23.396  18.917  23.109  0.00  0.00    +0.175 C 
BRANCH  10  11
ATOM     11  N   SER A   1      24.462  19.306  24.028  0.00  0.00    -0.236 NA
ATOM     12  H   SER A   1      24.891  20.247  23.916  0.00  0.00    +0.142 HD
ENDBRANCH  10  11
BRANCH  10  13
ATOM     13  CB  SER A   1      22.205  19.869  23.253  0.00  0.00    +0.163 C 
BRANCH  13  14
ATOM     14  OG  SER A   1      21.599  19.748  24.529  0.00  0.00    -0.380 OA
ATOM     15  H   SER A   1      21.278  18.820  24.654  0.00  0.00    +0.211 HD
ENDBRANCH  13  14
ENDBRANCH  10  13
ENDBRANCH   1  10
TORSDOF 5
REMARK  Name = ../refined-set-2016/1ttm/1ttm_pocket.pdb
REMARK  154 active torsions:
REMARK  status: ('A' for Active; 'I' for Inactive)
REMARK    1  A    between atoms: _1  and  _3
REMARK    2  A    between atoms: _3  and  _4
REMARK    3  A    between atoms: _3  and  _6
REMARK    4  A    between atoms: _6  and  _7
REMARK    5  A    between atoms: _17  and  _19
REMARK    6  A    between atoms: _19  and  _20
REMARK    7  A    between atoms: _19  and  _22
REMARK    8  A    between atoms: _22  and  _23
REMARK    9  A    between atoms: _28  and  _29
REMARK   10  A    between atoms: _31  and  _33
REMARK   11  A    between atoms: _33  and  _34
REMARK   12  A    between atoms: _33  and  _36
REMARK   13  A    between atoms: _36  and  _37
REMARK   14  A    between atoms: _40  and  _41
REMARK   15  A    between atoms: _46  and  _48
REMARK   16  A    between atoms: _48  and  _49
REMARK   17  A    between atoms: _48  and  _51
REMARK   18  A    between atoms: _51  and  _52
REMARK   19  A    between atoms: _57  and  _59
REMARK   20  A    between atoms: _59  and  _60
REMARK   21  A    between atoms: _59  and  _62
REMARK   22  A    between atoms: _62  and  _63
REMARK   23  A    between atoms: _68  and  _70
REMARK   24  A    between atoms: _70  and  _71
REMARK   25  A    between atoms: _70  and  _73
REMARK   26  A    between atoms: _73  and  _74
REMARK   27  A    between atoms: _79  and  _81
REMARK   28  A    between atoms: _81  and  _82
REMARK   29  A    between atoms: _81  and  _84
REMARK   30  A    between atoms: _84  and  _85
REMARK   31  A    between atoms: _85  and  _86
REMARK   32  A    between atoms: _89  and  _91
REMARK   33  A    between atoms: _91  and  _92
REMARK   34  A    between atoms: _91  and  _94
REMARK   35  A    between atoms: _94  and  _95
REMARK   36  A    between atoms: _98  and  _100
REMARK   37  A    between atoms: _100  and  _101
REMARK   38  A    between atoms: _100  and  _103
REMARK   39  A    between atoms: _103  and  _104
REMARK   40  A    between atoms: _104  and  _105
REMARK   41  A    between atoms: _110  and  _112
REMARK   42  A    between atoms: _112  and  _113
REMARK   43  A    between atoms: _112  and  _115
REMARK   44  A    between atoms: _115  and  _116
REMARK   45  A    between atoms: _122  and  _124
REMARK   46  A    between atoms: _135  and  _138
REMARK   47  A    between atoms: _138  and  _139
REMARK   48  A    between atoms: _147  and  _148
REMARK   49  A    between atoms: _156  and  _158
REMARK   50  A    between atoms: _158  and  _159
REMARK   51  A    between atoms: _158  and  _161
REMARK   52  A    between atoms: _161  and  _162
REMARK   53  A    between atoms: _162  and  _163
REMARK   54  A    between atoms: _166  and  _168
REMARK   55  A    between atoms: _168  and  _169
REMARK   56  A    between atoms: _168  and  _171
REMARK   57  A    between atoms: _171  and  _172
REMARK   58  A    between atoms: _177  and  _179
REMARK   59  A    between atoms: _179  and  _180
REMARK   60  A    between atoms: _179  and  _182
REMARK   61  A    between atoms: _182  and  _183
REMARK   62  A    between atoms: _183  and  _184
REMARK   63  A    between atoms: _187  and  _189
REMARK   64  A    between atoms: _189  and  _190
REMARK   65  A    between atoms: _189  and  _192
REMARK   66  A    between atoms: _192  and  _193
REMARK   67  A    between atoms: _196  and  _198
REMARK   68  A    between atoms: _198  and  _199
REMARK   69  A    between atoms: _198  and  _201
REMARK   70  A    between atoms: _201  and  _202
REMARK   71  A    between atoms: _203  and  ZN_434
REMARK   72  A    between atoms: _207  and  _209
REMARK   73  A    between atoms: _209  and  _210
REMARK   74  A    between atoms: _209  and  _212
REMARK   75  A    between atoms: _212  and  _213
REMARK   76  A    between atoms: _216  and  _218
REMARK   77  A    between atoms: _218  and  _219
REMARK   78  A    between atoms: _218  and  _221
REMARK   79  A    between atoms: _224  and  _226
REMARK   80  A    between atoms: _226  and  _227
REMARK   81  A    between atoms: _226  and  _229
REMARK   82  A    between atoms: _229  and  _230
REMARK   83  A    between atoms: _235  and  _237
REMARK   84  A    between atoms: _237  and  _238
REMARK   85  A    between atoms: _237  and  _240
REMARK   86  A    between atoms: _240  and  _241
REMARK   87  A    between atoms: _251  and  _253
REMARK   88  A    between atoms: _253  and  _254
REMARK   89  A    between atoms: _253  and  _256
REMARK   90  A    between atoms: _256  and  _257
REMARK   91  A    between atoms: _263  and  _265
REMARK   92  A    between atoms: _265  and  _266
REMARK   93  A    between atoms: _268  and  _270
REMARK   94  A    between atoms: _270  and  _271
REMARK   95  A    between atoms: _270  and  _273
REMARK   96  A    between atoms: _276  and  _278
REMARK   97  A    between atoms: _278  and  _279
REMARK   98  A    between atoms: _278  and  _281
REMARK   99  A    between atoms: _281  and  _282
REMARK  100  A    between atoms: _285  and  _287
REMARK  101  A    between atoms: _287  and  _288
REMARK  102  A    between atoms: _291  and  _293
REMARK  103  A    between atoms: _293  and  _294
REMARK  104  A    between atoms: _293  and  _296
REMARK  105  A    between atoms: _299  and  _301
REMARK  106  A    between atoms: _301  and  _302
REMARK  107  A    between atoms: _301  and  _304
REMARK  108  A    between atoms: _304  and  _305
REMARK  109  A    between atoms: _308  and  _310
REMARK  110  A    between atoms: _310  and  _311
REMARK  111  A    between atoms: _310  and  _313
REMARK  112  A    between atoms: _313  and  _314
REMARK  113  A    between atoms: _316  and  _318
REMARK  114  A    between atoms: _318  and  _319
REMARK  115  A    between atoms: _318  and  _321
REMARK  116  A    between atoms: _321  and  _322
REMARK  117  A    between atoms: _325  and  _327
REMARK  118  A    between atoms: _327  and  _328
REMARK  119  A    between atoms: _327  and  _330
REMARK  120  A    between atoms: _330  and  _331
REMARK  121  A    between atoms: _334  and  _336
REMARK  122  A    between atoms: _336  and  _337
REMARK  123  A    between atoms: _336  and  _339
REMARK  124  A    between atoms: _339  and  _340
REMARK  125  A    between atoms: _344  and  _345
REMARK  126  A    between atoms: _351  and  _352
REMARK  127  A    between atoms: _357  and  _359
REMARK  128  A    between atoms: _359  and  _360
REMARK  129  A    between atoms: _359  and  _362
REMARK  130  A    between atoms: _362  and  _363
REMARK  131  A    between atoms: _366  and  _368
REMARK  132  A    between atoms: _368  and  _369
REMARK  133  A    between atoms: _368  and  _371
REMARK  134  A    between atoms: _371  and  _372
REMARK  135  A    between atoms: _375  and  _377
REMARK  136  A    between atoms: _377  and  _378
REMARK  137  A    between atoms: _377  and  _380
REMARK  138  A    between atoms: _382  and  _384
REMARK  139  A    between atoms: _384  and  _385
REMARK  140  A    between atoms: _384  and  _387
REMARK  141  A    between atoms: _390  and  _392
REMARK  142  A    between atoms: _392  and  _393
REMARK  143  A    between atoms: _392  and  _395
REMARK  144  A    between atoms: _395  and  _396
REMARK  145  A    between atoms: _406  and  _408
REMARK  146  A    between atoms: _408  and  _409
REMARK  147  A    between atoms: _408  and  _411
REMARK  148  A    between atoms: _411  and  _412
REMARK  149  A    between atoms: _417  and  _419
REMARK  150  A    between atoms: _419  and  _420
REMARK  151  A    between atoms: _419  and  _422
REMARK  152  A    between atoms: _422  and  _423
REMARK  153  A    between atoms: _423  and  _424
REMARK  154  A    between atoms: _424  and  _425
REMARK                            x       y       z     vdW  Elec       q    Type
REMARK                         _______ _______ _______ _____ _____    ______ ____
ROOT
ATOM      1  CB  ASN A   1      23.484  35.129  11.299  0.00  0.00    +0.110 C 
ENDROOT
BRANCH   1   2
ATOM      2  CG  ASN A   1      23.462  33.712  11.853  0.00  0.00    +0.221 C 
ATOM      3  ND2 ASN A   1      23.501  33.599  13.176  0.00  0.00    -0.329 N 
ATOM      4 HD21 ASN A   1      23.549  34.452  13.770  0.00  0.00    +0.145 HD
ATOM      5 HD22 ASN A   1      23.484  32.658  13.618  0.00  0.00    +0.145 HD
ATOM      6  OD1 ASN A   1      23.405  32.736  11.106  0.00  0.00    -0.275 OA
ENDBRANCH   1   2
BRANCH   1   7
ATOM      7  CA  ASN A   1      23.876  35.183   9.818  0.00  0.00    +0.142 C 
BRANCH   7   8
ATOM      8  N   ASN A   1      22.737  34.799   8.993  0.00  0.00    -0.239 NA
ATOM      9  H   ASN A   1      22.182  33.955   9.242  0.00  0.00    +0.142 HD
ENDBRANCH   7   8
BRANCH   7  10
ATOM     10  C   ASN A   1      25.128  34.343   9.575  0.00  0.00    +0.225 C 
ATOM     11  O   ASN A   1      26.081  34.412  10.346  0.00  0.00    -0.287 OA
ENDBRANCH   7  10
ENDBRANCH   1   7
TORSDOF 4
REMARK  Name = ../refined-set-2016/1ttm/1ttm_pocket.pdb
REMARK  154 active torsions:
REMARK  status: ('A' for Active; 'I' for Inactive)
REMARK    1  A    between atoms: _1  and  _3
REMARK    2  A    between atoms: _3  and  _4
REMARK    3  A    between atoms: _3  and  _6
REMARK    4  A    between atoms: _6  and  _7
REMARK    5  A    between atoms: _17  and  _19
REMARK    6  A    between atoms: _19  and  _20
REMARK    7  A    between atoms: _19  and  _22
REMARK    8  A    between atoms: _22  and  _23
REMARK    9  A    between atoms: _28  and  _29
REMARK   10  A    between atoms: _31  and  _33
REMARK   11  A    between atoms: _33  and  _34
REMARK   12  A    between atoms: _33  and  _36
REMARK   13  A    between atoms: _36  and  _37
REMARK   14  A    between atoms: _40  and  _41
REMARK   15  A    between atoms: _46  and  _48
REMARK   16  A    between atoms: _48  and  _49
REMARK   17  A    between atoms: _48  and  _51
REMARK   18  A    between atoms: _51  and  _52
REMARK   19  A    between atoms: _57  and  _59
REMARK   20  A    between atoms: _59  and  _60
REMARK   21  A    between atoms: _59  and  _62
REMARK   22  A    between atoms: _62  and  _63
REMARK   23  A    between atoms: _68  and  _70
REMARK   24  A    between atoms: _70  and  _71
REMARK   25  A    between atoms: _70  and  _73
REMARK   26  A    between atoms: _73  and  _74
REMARK   27  A    between atoms: _79  and  _81
REMARK   28  A    between atoms: _81  and  _82
REMARK   29  A    between atoms: _81  and  _84
REMARK   30  A    between atoms: _84  and  _85
REMARK   31  A    between atoms: _85  and  _86
REMARK   32  A    between atoms: _89  and  _91
REMARK   33  A    between atoms: _91  and  _92
REMARK   34  A    between atoms: _91  and  _94
REMARK   35  A    between atoms: _94  and  _95
REMARK   36  A    between atoms: _98  and  _100
REMARK   37  A    between atoms: _100  and  _101
REMARK   38  A    between atoms: _100  and  _103
REMARK   39  A    between atoms: _103  and  _104
REMARK   40  A    between atoms: _104  and  _105
REMARK   41  A    between atoms: _110  and  _112
REMARK   42  A    between atoms: _112  and  _113
REMARK   43  A    between atoms: _112  and  _115
REMARK   44  A    between atoms: _115  and  _116
REMARK   45  A    between atoms: _122  and  _124
REMARK   46  A    between atoms: _135  and  _138
REMARK   47  A    between atoms: _138  and  _139
REMARK   48  A    between atoms: _147  and  _148
REMARK   49  A    between atoms: _156  and  _158
REMARK   50  A    between atoms: _158  and  _159
REMARK   51  A    between atoms: _158  and  _161
REMARK   52  A    between atoms: _161  and  _162
REMARK   53  A    between atoms: _162  and  _163
REMARK   54  A    between atoms: _166  and  _168
REMARK   55  A    between atoms: _168  and  _169
REMARK   56  A    between atoms: _168  and  _171
REMARK   57  A    between atoms: _171  and  _172
REMARK   58  A    between atoms: _177  and  _179
REMARK   59  A    between atoms: _179  and  _180
REMARK   60  A    between atoms: _179  and  _182
REMARK   61  A    between atoms: _182  and  _183
REMARK   62  A    between atoms: _183  and  _184
REMARK   63  A    between atoms: _187  and  _189
REMARK   64  A    between atoms: _189  and  _190
REMARK   65  A    between atoms: _189  and  _192
REMARK   66  A    between atoms: _192  and  _193
REMARK   67  A    between atoms: _196  and  _198
REMARK   68  A    between atoms: _198  and  _199
REMARK   69  A    between atoms: _198  and  _201
REMARK   70  A    between atoms: _201  and  _202
REMARK   71  A    between atoms: _203  and  ZN_434
REMARK   72  A    between atoms: _207  and  _209
REMARK   73  A    between atoms: _209  and  _210
REMARK   74  A    between atoms: _209  and  _212
REMARK   75  A    between atoms: _212  and  _213
REMARK   76  A    between atoms: _216  and  _218
REMARK   77  A    between atoms: _218  and  _219
REMARK   78  A    between atoms: _218  and  _221
REMARK   79  A    between atoms: _224  and  _226
REMARK   80  A    between atoms: _226  and  _227
REMARK   81  A    between atoms: _226  and  _229
REMARK   82  A    between atoms: _229  and  _230
REMARK   83  A    between atoms: _235  and  _237
REMARK   84  A    between atoms: _237  and  _238
REMARK   85  A    between atoms: _237  and  _240
REMARK   86  A    between atoms: _240  and  _241
REMARK   87  A    between atoms: _251  and  _253
REMARK   88  A    between atoms: _253  and  _254
REMARK   89  A    between atoms: _253  and  _256
REMARK   90  A    between atoms: _256  and  _257
REMARK   91  A    between atoms: _263  and  _265
REMARK   92  A    between atoms: _265  and  _266
REMARK   93  A    between atoms: _268  and  _270
REMARK   94  A    between atoms: _270  and  _271
REMARK   95  A    between atoms: _270  and  _273
REMARK   96  A    between atoms: _276  and  _278
REMARK   97  A    between atoms: _278  and  _279
REMARK   98  A    between atoms: _278  and  _281
REMARK   99  A    between atoms: _281  and  _282
REMARK  100  A    between atoms: _285  and  _287
REMARK  101  A    between atoms: _287  and  _288
REMARK  102  A    between atoms: _291  and  _293
REMARK  103  A    between atoms: _293  and  _294
REMARK  104  A    between atoms: _293  and  _296
REMARK  105  A    between atoms: _299  and  _301
REMARK  106  A    between atoms: _301  and  _302
REMARK  107  A    between atoms: _301  and  _304
REMARK  108  A    between atoms: _304  and  _305
REMARK  109  A    between atoms: _308  and  _310
REMARK  110  A    between atoms: _310  and  _311
REMARK  111  A    between atoms: _310  and  _313
REMARK  112  A    between atoms: _313  and  _314
REMARK  113  A    between atoms: _316  and  _318
REMARK  114  A    between atoms: _318  and  _319
REMARK  115  A    between atoms: _318  and  _321
REMARK  116  A    between atoms: _321  and  _322
REMARK  117  A    between atoms: _325  and  _327
REMARK  118  A    between atoms: _327  and  _328
REMARK  119  A    between atoms: _327  and  _330
REMARK  120  A    between atoms: _330  and  _331
REMARK  121  A    between atoms: _334  and  _336
REMARK  122  A    between atoms: _336  and  _337
REMARK  123  A    between atoms: _336  and  _339
REMARK  124  A    between atoms: _339  and  _340
REMARK  125  A    between atoms: _344  and  _345
REMARK  126  A    between atoms: _351  and  _352
REMARK  127  A    between atoms: _357  and  _359
REMARK  128  A    between atoms: _359  and  _360
REMARK  129  A    between atoms: _359  and  _362
REMARK  130  A    between atoms: _362  and  _363
REMARK  131  A    between atoms: _366  and  _368
REMARK  132  A    between atoms: _368  and  _369
REMARK  133  A    between atoms: _368  and  _371
REMARK  134  A    between atoms: _371  and  _372
REMARK  135  A    between atoms: _375  and  _377
REMARK  136  A    between atoms: _377  and  _378
REMARK  137  A    between atoms: _377  and  _380
REMARK  138  A    between atoms: _382  and  _384
REMARK  139  A    between atoms: _384  and  _385
REMARK  140  A    between atoms: _384  and  _387
REMARK  141  A    between atoms: _390  and  _392
REMARK  142  A    between atoms: _392  and  _393
REMARK  143  A    between atoms: _392  and  _395
REMARK  144  A    between atoms: _395  and  _396
REMARK  145  A    between atoms: _406  and  _408
REMARK  146  A    between atoms: _408  and  _409
REMARK  147  A    between atoms: _408  and  _411
REMARK  148  A    between atoms: _411  and  _412
REMARK  149  A    between atoms: _417  and  _419
REMARK  150  A    between atoms: _419  and  _420
REMARK  151  A    between atoms: _419  and  _422
REMARK  152  A    between atoms: _422  and  _423
REMARK  153  A    between atoms: _423  and  _424
REMARK  154  A    between atoms: _424  and  _425
REMARK                            x       y       z     vdW  Elec       q    Type
REMARK                         _______ _______ _______ _____ _____    ______ ____
ROOT
ATOM      1  CB  HIS A   1      25.385  29.944  11.856  0.00  0.00    +0.072 C 
ENDROOT
BRANCH   1   2
ATOM      2  CG  HIS A   1      26.611  30.685  12.271  0.00  0.00    +0.082 A 
ATOM      3  CD2 HIS A   1      26.770  31.790  13.034  0.00  0.00    +0.115 A 
ATOM      4  NE2 HIS A   1      28.117  32.051  13.089  0.00  0.00    -0.221 NA
ATOM      5  CE1 HIS A   1      28.762  31.139  12.384  0.00  0.00    +0.199 A 
ATOM      6  ND1 HIS A   1      27.876  30.301  11.879  0.00  0.00    -0.227 NA
ENDBRANCH   1   2
BRANCH   1   7
ATOM      7  CA  HIS A   1      25.269  29.762  10.347  0.00  0.00    +0.139 C 
BRANCH   7   8
ATOM      8  N   HIS A   1      25.338  31.056   9.674  0.00  0.00    -0.239 NA
ATOM      9  H   HIS A   1      24.585  31.754   9.841  0.00  0.00    +0.142 HD
ENDBRANCH   7   8
BRANCH   7  10
ATOM     10  C   HIS A   1      23.937  29.107  10.023  0.00  0.00    +0.224 C 
ATOM     11  O   HIS A   1      23.792  27.888  10.080  0.00  0.00    -0.287 OA
ENDBRANCH   7  10
ENDBRANCH   1   7
TORSDOF 4
REMARK  Name = ../refined-set-2016/1ttm/1ttm_pocket.pdb
REMARK  154 active torsions:
REMARK  status: ('A' for Active; 'I' for Inactive)
REMARK    1  A    between atoms: _1  and  _3
REMARK    2  A    between atoms: _3  and  _4
REMARK    3  A    between atoms: _3  and  _6
REMARK    4  A    between atoms: _6  and  _7
REMARK    5  A    between atoms: _17  and  _19
REMARK    6  A    between atoms: _19  and  _20
REMARK    7  A    between atoms: _19  and  _22
REMARK    8  A    between atoms: _22  and  _23
REMARK    9  A    between atoms: _28  and  _29
REMARK   10  A    between atoms: _31  and  _33
REMARK   11  A    between atoms: _33  and  _34
REMARK   12  A    between atoms: _33  and  _36
REMARK   13  A    between atoms: _36  and  _37
REMARK   14  A    between atoms: _40  and  _41
REMARK   15  A    between atoms: _46  and  _48
REMARK   16  A    between atoms: _48  and  _49
REMARK   17  A    between atoms: _48  and  _51
REMARK   18  A    between atoms: _51  and  _52
REMARK   19  A    between atoms: _57  and  _59
REMARK   20  A    between atoms: _59  and  _60
REMARK   21  A    between atoms: _59  and  _62
REMARK   22  A    between atoms: _62  and  _63
REMARK   23  A    between atoms: _68  and  _70
REMARK   24  A    between atoms: _70  and  _71
REMARK   25  A    between atoms: _70  and  _73
REMARK   26  A    between atoms: _73  and  _74
REMARK   27  A    between atoms: _79  and  _81
REMARK   28  A    between atoms: _81  and  _82
REMARK   29  A    between atoms: _81  and  _84
REMARK   30  A    between atoms: _84  and  _85
REMARK   31  A    between atoms: _85  and  _86
REMARK   32  A    between atoms: _89  and  _91
REMARK   33  A    between atoms: _91  and  _92
REMARK   34  A    between atoms: _91  and  _94
REMARK   35  A    between atoms: _94  and  _95
REMARK   36  A    between atoms: _98  and  _100
REMARK   37  A    between atoms: _100  and  _101
REMARK   38  A    between atoms: _100  and  _103
REMARK   39  A    between atoms: _103  and  _104
REMARK   40  A    between atoms: _104  and  _105
REMARK   41  A    between atoms: _110  and  _112
REMARK   42  A    between atoms: _112  and  _113
REMARK   43  A    between atoms: _112  and  _115
REMARK   44  A    between atoms: _115  and  _116
REMARK   45  A    between atoms: _122  and  _124
REMARK   46  A    between atoms: _135  and  _138
REMARK   47  A    between atoms: _138  and  _139
REMARK   48  A    between atoms: _147  and  _148
REMARK   49  A    between atoms: _156  and  _158
REMARK   50  A    between atoms: _158  and  _159
REMARK   51  A    between atoms: _158  and  _161
REMARK   52  A    between atoms: _161  and  _162
REMARK   53  A    between atoms: _162  and  _163
REMARK   54  A    between atoms: _166  and  _168
REMARK   55  A    between atoms: _168  and  _169
REMARK   56  A    between atoms: _168  and  _171
REMARK   57  A    between atoms: _171  and  _172
REMARK   58  A    between atoms: _177  and  _179
REMARK   59  A    between atoms: _179  and  _180
REMARK   60  A    between atoms: _179  and  _182
REMARK   61  A    between atoms: _182  and  _183
REMARK   62  A    between atoms: _183  and  _184
REMARK   63  A    between atoms: _187  and  _189
REMARK   64  A    between atoms: _189  and  _190
REMARK   65  A    between atoms: _189  and  _192
REMARK   66  A    between atoms: _192  and  _193
REMARK   67  A    between atoms: _196  and  _198
REMARK   68  A    between atoms: _198  and  _199
REMARK   69  A    between atoms: _198  and  _201
REMARK   70  A    between atoms: _201  and  _202
REMARK   71  A    between atoms: _203  and  ZN_434
REMARK   72  A    between atoms: _207  and  _209
REMARK   73  A    between atoms: _209  and  _210
REMARK   74  A    between atoms: _209  and  _212
REMARK   75  A    between atoms: _212  and  _213
REMARK   76  A    between atoms: _216  and  _218
REMARK   77  A    between atoms: _218  and  _219
REMARK   78  A    between atoms: _218  and  _221
REMARK   79  A    between atoms: _224  and  _226
REMARK   80  A    between atoms: _226  and  _227
REMARK   81  A    between atoms: _226  and  _229
REMARK   82  A    between atoms: _229  and  _230
REMARK   83  A    between atoms: _235  and  _237
REMARK   84  A    between atoms: _237  and  _238
REMARK   85  A    between atoms: _237  and  _240
REMARK   86  A    between atoms: _240  and  _241
REMARK   87  A    between atoms: _251  and  _253
REMARK   88  A    between atoms: _253  and  _254
REMARK   89  A    between atoms: _253  and  _256
REMARK   90  A    between atoms: _256  and  _257
REMARK   91  A    between atoms: _263  and  _265
REMARK   92  A    between atoms: _265  and  _266
REMARK   93  A    between atoms: _268  and  _270
REMARK   94  A    between atoms: _270  and  _271
REMARK   95  A    between atoms: _270  and  _273
REMARK   96  A    between atoms: _276  and  _278
REMARK   97  A    between atoms: _278  and  _279
REMARK   98  A    between atoms: _278  and  _281
REMARK   99  A    between atoms: _281  and  _282
REMARK  100  A    between atoms: _285  and  _287
REMARK  101  A    between atoms: _287  and  _288
REMARK  102  A    between atoms: _291  and  _293
REMARK  103  A    between atoms: _293  and  _294
REMARK  104  A    between atoms: _293  and  _296
REMARK  105  A    between atoms: _299  and  _301
REMARK  106  A    between atoms: _301  and  _302
REMARK  107  A    between atoms: _301  and  _304
REMARK  108  A    between atoms: _304  and  _305
REMARK  109  A    between atoms: _308  and  _310
REMARK  110  A    between atoms: _310  and  _311
REMARK  111  A    between atoms: _310  and  _313
REMARK  112  A    between atoms: _313  and  _314
REMARK  113  A    between atoms: _316  and  _318
REMARK  114  A    between atoms: _318  and  _319
REMARK  115  A    between atoms: _318  and  _321
REMARK  116  A    between atoms: _321  and  _322
REMARK  117  A    between atoms: _325  and  _327
REMARK  118  A    between atoms: _327  and  _328
REMARK  119  A    between atoms: _327  and  _330
REMARK  120  A    between atoms: _330  and  _331
REMARK  121  A    between atoms: _334  and  _336
REMARK  122  A    between atoms: _336  and  _337
REMARK  123  A    between atoms: _336  and  _339
REMARK  124  A    between atoms: _339  and  _340
REMARK  125  A    between atoms: _344  and  _345
REMARK  126  A    between atoms: _351  and  _352
REMARK  127  A    between atoms: _357  and  _359
REMARK  128  A    between atoms: _359  and  _360
REMARK  129  A    between atoms: _359  and  _362
REMARK  130  A    between atoms: _362  and  _363
REMARK  131  A    between atoms: _366  and  _368
REMARK  132  A    between atoms: _368  and  _369
REMARK  133  A    between atoms: _368  and  _371
REMARK  134  A    between atoms: _371  and  _372
REMARK  135  A    between atoms: _375  and  _377
REMARK  136  A    between atoms: _377  and  _378
REMARK  137  A    between atoms: _377  and  _380
REMARK  138  A    between atoms: _382  and  _384
REMARK  139  A    between atoms: _384  and  _385
REMARK  140  A    between atoms: _384  and  _387
REMARK  141  A    between atoms: _390  and  _392
REMARK  142  A    between atoms: _392  and  _393
REMARK  143  A    between atoms: _392  and  _395
REMARK  144  A    between atoms: _395  and  _396
REMARK  145  A    between atoms: _406  and  _408
REMARK  146  A    between atoms: _408  and  _409
REMARK  147  A    between atoms: _408  and  _411
REMARK  148  A    between atoms: _411  and  _412
REMARK  149  A    between atoms: _417  and  _419
REMARK  150  A    between atoms: _419  and  _420
REMARK  151  A    between atoms: _419  and  _422
REMARK  152  A    between atoms: _422  and  _423
REMARK  153  A    between atoms: _423  and  _424
REMARK  154  A    between atoms: _424  and  _425
REMARK                            x       y       z     vdW  Elec       q    Type
REMARK                         _______ _______ _______ _____ _____    ______ ____
ROOT
ATOM      1  CB  ASN A   1      17.247  33.065  13.075  0.00  0.00    +0.110 C 
ENDROOT
BRANCH   1   2
ATOM      2  CG  ASN A   1      18.554  33.803  13.036  0.00  0.00    +0.221 C 
ATOM      3  OD1 ASN A   1      19.608  33.223  13.306  0.00  0.00    -0.275 OA
ATOM      4  ND2 ASN A   1      18.503  35.090  12.705  0.00  0.00    -0.329 N 
ATOM      5 HD21 ASN A   1      19.377  35.652  12.666  0.00  0.00    +0.145 HD
ATOM      6 HD22 ASN A   1      17.589  35.535  12.486  0.00  0.00    +0.145 HD
ENDBRANCH   1   2
BRANCH   1   7
ATOM      7  CA  ASN A   1      16.536  33.037  11.719  0.00  0.00    +0.142 C 
BRANCH   7   8
ATOM      8  N   ASN A   1      17.474  33.012  10.621  0.00  0.00    -0.239 NA
ATOM      9  H   ASN A   1      17.906  33.894  10.277  0.00  0.00    +0.142 HD
ENDBRANCH   7   8
BRANCH   7  10
ATOM     10  C   ASN A   1      15.577  34.193  11.607  0.00  0.00    +0.225 C 
ATOM     11  O   ASN A   1      15.865  35.213  10.973  0.00  0.00    -0.287 OA
ENDBRANCH   7  10
ENDBRANCH   1   7
TORSDOF 4
REMARK  Name = ../refined-set-2016/1ttm/1ttm_pocket.pdb
REMARK  154 active torsions:
REMARK  status: ('A' for Active; 'I' for Inactive)
REMARK    1  A    between atoms: _1  and  _3
REMARK    2  A    between atoms: _3  and  _4
REMARK    3  A    between atoms: _3  and  _6
REMARK    4  A    between atoms: _6  and  _7
REMARK    5  A    between atoms: _17  and  _19
REMARK    6  A    between atoms: _19  and  _20
REMARK    7  A    between atoms: _19  and  _22
REMARK    8  A    between atoms: _22  and  _23
REMARK    9  A    between atoms: _28  and  _29
REMARK   10  A    between atoms: _31  and  _33
REMARK   11  A    between atoms: _33  and  _34
REMARK   12  A    between atoms: _33  and  _36
REMARK   13  A    between atoms: _36  and  _37
REMARK   14  A    between atoms: _40  and  _41
REMARK   15  A    between atoms: _46  and  _48
REMARK   16  A    between atoms: _48  and  _49
REMARK   17  A    between atoms: _48  and  _51
REMARK   18  A    between atoms: _51  and  _52
REMARK   19  A    between atoms: _57  and  _59
REMARK   20  A    between atoms: _59  and  _60
REMARK   21  A    between atoms: _59  and  _62
REMARK   22  A    between atoms: _62  and  _63
REMARK   23  A    between atoms: _68  and  _70
REMARK   24  A    between atoms: _70  and  _71
REMARK   25  A    between atoms: _70  and  _73
REMARK   26  A    between atoms: _73  and  _74
REMARK   27  A    between atoms: _79  and  _81
REMARK   28  A    between atoms: _81  and  _82
REMARK   29  A    between atoms: _81  and  _84
REMARK   30  A    between atoms: _84  and  _85
REMARK   31  A    between atoms: _85  and  _86
REMARK   32  A    between atoms: _89  and  _91
REMARK   33  A    between atoms: _91  and  _92
REMARK   34  A    between atoms: _91  and  _94
REMARK   35  A    between atoms: _94  and  _95
REMARK   36  A    between atoms: _98  and  _100
REMARK   37  A    between atoms: _100  and  _101
REMARK   38  A    between atoms: _100  and  _103
REMARK   39  A    between atoms: _103  and  _104
REMARK   40  A    between atoms: _104  and  _105
REMARK   41  A    between atoms: _110  and  _112
REMARK   42  A    between atoms: _112  and  _113
REMARK   43  A    between atoms: _112  and  _115
REMARK   44  A    between atoms: _115  and  _116
REMARK   45  A    between atoms: _122  and  _124
REMARK   46  A    between atoms: _135  and  _138
REMARK   47  A    between atoms: _138  and  _139
REMARK   48  A    between atoms: _147  and  _148
REMARK   49  A    between atoms: _156  and  _158
REMARK   50  A    between atoms: _158  and  _159
REMARK   51  A    between atoms: _158  and  _161
REMARK   52  A    between atoms: _161  and  _162
REMARK   53  A    between atoms: _162  and  _163
REMARK   54  A    between atoms: _166  and  _168
REMARK   55  A    between atoms: _168  and  _169
REMARK   56  A    between atoms: _168  and  _171
REMARK   57  A    between atoms: _171  and  _172
REMARK   58  A    between atoms: _177  and  _179
REMARK   59  A    between atoms: _179  and  _180
REMARK   60  A    between atoms: _179  and  _182
REMARK   61  A    between atoms: _182  and  _183
REMARK   62  A    between atoms: _183  and  _184
REMARK   63  A    between atoms: _187  and  _189
REMARK   64  A    between atoms: _189  and  _190
REMARK   65  A    between atoms: _189  and  _192
REMARK   66  A    between atoms: _192  and  _193
REMARK   67  A    between atoms: _196  and  _198
REMARK   68  A    between atoms: _198  and  _199
REMARK   69  A    between atoms: _198  and  _201
REMARK   70  A    between atoms: _201  and  _202
REMARK   71  A    between atoms: _203  and  ZN_434
REMARK   72  A    between atoms: _207  and  _209
REMARK   73  A    between atoms: _209  and  _210
REMARK   74  A    between atoms: _209  and  _212
REMARK   75  A    between atoms: _212  and  _213
REMARK   76  A    between atoms: _216  and  _218
REMARK   77  A    between atoms: _218  and  _219
REMARK   78  A    between atoms: _218  and  _221
REMARK   79  A    between atoms: _224  and  _226
REMARK   80  A    between atoms: _226  and  _227
REMARK   81  A    between atoms: _226  and  _229
REMARK   82  A    between atoms: _229  and  _230
REMARK   83  A    between atoms: _235  and  _237
REMARK   84  A    between atoms: _237  and  _238
REMARK   85  A    between atoms: _237  and  _240
REMARK   86  A    between atoms: _240  and  _241
REMARK   87  A    between atoms: _251  and  _253
REMARK   88  A    between atoms: _253  and  _254
REMARK   89  A    between atoms: _253  and  _256
REMARK   90  A    between atoms: _256  and  _257
REMARK   91  A    between atoms: _263  and  _265
REMARK   92  A    between atoms: _265  and  _266
REMARK   93  A    between atoms: _268  and  _270
REMARK   94  A    between atoms: _270  and  _271
REMARK   95  A    between atoms: _270  and  _273
REMARK   96  A    between atoms: _276  and  _278
REMARK   97  A    between atoms: _278  and  _279
REMARK   98  A    between atoms: _278  and  _281
REMARK   99  A    between atoms: _281  and  _282
REMARK  100  A    between atoms: _285  and  _287
REMARK  101  A    between atoms: _287  and  _288
REMARK  102  A    between atoms: _291  and  _293
REMARK  103  A    between atoms: _293  and  _294
REMARK  104  A    between atoms: _293  and  _296
REMARK  105  A    between atoms: _299  and  _301
REMARK  106  A    between atoms: _301  and  _302
REMARK  107  A    between atoms: _301  and  _304
REMARK  108  A    between atoms: _304  and  _305
REMARK  109  A    between atoms: _308  and  _310
REMARK  110  A    between atoms: _310  and  _311
REMARK  111  A    between atoms: _310  and  _313
REMARK  112  A    between atoms: _313  and  _314
REMARK  113  A    between atoms: _316  and  _318
REMARK  114  A    between atoms: _318  and  _319
REMARK  115  A    between atoms: _318  and  _321
REMARK  116  A    between atoms: _321  and  _322
REMARK  117  A    between atoms: _325  and  _327
REMARK  118  A    between atoms: _327  and  _328
REMARK  119  A    between atoms: _327  and  _330
REMARK  120  A    between atoms: _330  and  _331
REMARK  121  A    between atoms: _334  and  _336
REMARK  122  A    between atoms: _336  and  _337
REMARK  123  A    between atoms: _336  and  _339
REMARK  124  A    between atoms: _339  and  _340
REMARK  125  A    between atoms: _344  and  _345
REMARK  126  A    between atoms: _351  and  _352
REMARK  127  A    between atoms: _357  and  _359
REMARK  128  A    between atoms: _359  and  _360
REMARK  129  A    between atoms: _359  and  _362
REMARK  130  A    between atoms: _362  and  _363
REMARK  131  A    between atoms: _366  and  _368
REMARK  132  A    between atoms: _368  and  _369
REMARK  133  A    between atoms: _368  and  _371
REMARK  134  A    between atoms: _371  and  _372
REMARK  135  A    between atoms: _375  and  _377
REMARK  136  A    between atoms: _377  and  _378
REMARK  137  A    between atoms: _377  and  _380
REMARK  138  A    between atoms: _382  and  _384
REMARK  139  A    between atoms: _384  and  _385
REMARK  140  A    between atoms: _384  and  _387
REMARK  141  A    between atoms: _390  and  _392
REMARK  142  A    between atoms: _392  and  _393
REMARK  143  A    between atoms: _392  and  _395
REMARK  144  A    between atoms: _395  and  _396
REMARK  145  A    between atoms: _406  and  _408
REMARK  146  A    between atoms: _408  and  _409
REMARK  147  A    between atoms: _408  and  _411
REMARK  148  A    between atoms: _411  and  _412
REMARK  149  A    between atoms: _417  and  _419
REMARK  150  A    between atoms: _419  and  _420
REMARK  151  A    between atoms: _419  and  _422
REMARK  152  A    between atoms: _422  and  _423
REMARK  153  A    between atoms: _423  and  _424
REMARK  154  A    between atoms: _424  and  _425
REMARK                            x       y       z     vdW  Elec       q    Type
REMARK                         _______ _______ _______ _____ _____    ______ ____
ROOT
ATOM      1  CA  GLU A   1      13.530  37.431  15.092  0.00  0.00    +0.134 C 
ENDROOT
BRANCH   1   2
ATOM      2  N   GLU A   1      13.521  36.804  13.784  0.00  0.00    -0.239 NA
ATOM      3  H   GLU A   1      13.679  37.388  12.938  0.00  0.00    +0.142 HD
ENDBRANCH   1   2
BRANCH   1   4
ATOM      4  C   GLU A   1      12.164  37.974  15.446  0.00  0.00    +0.224 C 
ATOM      5  O   GLU A   1      11.419  38.422  14.571  0.00  0.00    -0.287 OA
ENDBRANCH   1   4
BRANCH   1   6
ATOM      6  CB  GLU A   1      14.552  38.563  15.122  0.00  0.00    +0.037 C 
BRANCH   6   7
ATOM      7  CG  GLU A   1      15.955  38.138  14.753  0.00  0.00    +0.116 C 
BRANCH   7   8
ATOM      8  CD  GLU A   1      16.955  39.261  14.927  0.00  0.00    +0.365 C 
ATOM      9  OE2 GLU A   1      18.010  39.027  15.552  0.00  0.00    -0.246 OA
ATOM     10  OE1 GLU A   1      16.683  40.378  14.436  0.00  0.00    -0.246 OA
ENDBRANCH   7   8
ENDBRANCH   6   7
ENDBRANCH   1   6
TORSDOF 5
REMARK  Name = ../refined-set-2016/1ttm/1ttm_pocket.pdb
REMARK  154 active torsions:
REMARK  status: ('A' for Active; 'I' for Inactive)
REMARK    1  A    between atoms: _1  and  _3
REMARK    2  A    between atoms: _3  and  _4
REMARK    3  A    between atoms: _3  and  _6
REMARK    4  A    between atoms: _6  and  _7
REMARK    5  A    between atoms: _17  and  _19
REMARK    6  A    between atoms: _19  and  _20
REMARK    7  A    between atoms: _19  and  _22
REMARK    8  A    between atoms: _22  and  _23
REMARK    9  A    between atoms: _28  and  _29
REMARK   10  A    between atoms: _31  and  _33
REMARK   11  A    between atoms: _33  and  _34
REMARK   12  A    between atoms: _33  and  _36
REMARK   13  A    between atoms: _36  and  _37
REMARK   14  A    between atoms: _40  and  _41
REMARK   15  A    between atoms: _46  and  _48
REMARK   16  A    between atoms: _48  and  _49
REMARK   17  A    between atoms: _48  and  _51
REMARK   18  A    between atoms: _51  and  _52
REMARK   19  A    between atoms: _57  and  _59
REMARK   20  A    between atoms: _59  and  _60
REMARK   21  A    between atoms: _59  and  _62
REMARK   22  A    between atoms: _62  and  _63
REMARK   23  A    between atoms: _68  and  _70
REMARK   24  A    between atoms: _70  and  _71
REMARK   25  A    between atoms: _70  and  _73
REMARK   26  A    between atoms: _73  and  _74
REMARK   27  A    between atoms: _79  and  _81
REMARK   28  A    between atoms: _81  and  _82
REMARK   29  A    between atoms: _81  and  _84
REMARK   30  A    between atoms: _84  and  _85
REMARK   31  A    between atoms: _85  and  _86
REMARK   32  A    between atoms: _89  and  _91
REMARK   33  A    between atoms: _91  and  _92
REMARK   34  A    between atoms: _91  and  _94
REMARK   35  A    between atoms: _94  and  _95
REMARK   36  A    between atoms: _98  and  _100
REMARK   37  A    between atoms: _100  and  _101
REMARK   38  A    between atoms: _100  and  _103
REMARK   39  A    between atoms: _103  and  _104
REMARK   40  A    between atoms: _104  and  _105
REMARK   41  A    between atoms: _110  and  _112
REMARK   42  A    between atoms: _112  and  _113
REMARK   43  A    between atoms: _112  and  _115
REMARK   44  A    between atoms: _115  and  _116
REMARK   45  A    between atoms: _122  and  _124
REMARK   46  A    between atoms: _135  and  _138
REMARK   47  A    between atoms: _138  and  _139
REMARK   48  A    between atoms: _147  and  _148
REMARK   49  A    between atoms: _156  and  _158
REMARK   50  A    between atoms: _158  and  _159
REMARK   51  A    between atoms: _158  and  _161
REMARK   52  A    between atoms: _161  and  _162
REMARK   53  A    between atoms: _162  and  _163
REMARK   54  A    between atoms: _166  and  _168
REMARK   55  A    between atoms: _168  and  _169
REMARK   56  A    between atoms: _168  and  _171
REMARK   57  A    between atoms: _171  and  _172
REMARK   58  A    between atoms: _177  and  _179
REMARK   59  A    between atoms: _179  and  _180
REMARK   60  A    between atoms: _179  and  _182
REMARK   61  A    between atoms: _182  and  _183
REMARK   62  A    between atoms: _183  and  _184
REMARK   63  A    between atoms: _187  and  _189
REMARK   64  A    between atoms: _189  and  _190
REMARK   65  A    between atoms: _189  and  _192
REMARK   66  A    between atoms: _192  and  _193
REMARK   67  A    between atoms: _196  and  _198
REMARK   68  A    between atoms: _198  and  _199
REMARK   69  A    between atoms: _198  and  _201
REMARK   70  A    between atoms: _201  and  _202
REMARK   71  A    between atoms: _203  and  ZN_434
REMARK   72  A    between atoms: _207  and  _209
REMARK   73  A    between atoms: _209  and  _210
REMARK   74  A    between atoms: _209  and  _212
REMARK   75  A    between atoms: _212  and  _213
REMARK   76  A    between atoms: _216  and  _218
REMARK   77  A    between atoms: _218  and  _219
REMARK   78  A    between atoms: _218  and  _221
REMARK   79  A    between atoms: _224  and  _226
REMARK   80  A    between atoms: _226  and  _227
REMARK   81  A    between atoms: _226  and  _229
REMARK   82  A    between atoms: _229  and  _230
REMARK   83  A    between atoms: _235  and  _237
REMARK   84  A    between atoms: _237  and  _238
REMARK   85  A    between atoms: _237  and  _240
REMARK   86  A    between atoms: _240  and  _241
REMARK   87  A    between atoms: _251  and  _253
REMARK   88  A    between atoms: _253  and  _254
REMARK   89  A    between atoms: _253  and  _256
REMARK   90  A    between atoms: _256  and  _257
REMARK   91  A    between atoms: _263  and  _265
REMARK   92  A    between atoms: _265  and  _266
REMARK   93  A    between atoms: _268  and  _270
REMARK   94  A    between atoms: _270  and  _271
REMARK   95  A    between atoms: _270  and  _273
REMARK   96  A    between atoms: _276  and  _278
REMARK   97  A    between atoms: _278  and  _279
REMARK   98  A    between atoms: _278  and  _281
REMARK   99  A    between atoms: _281  and  _282
REMARK  100  A    between atoms: _285  and  _287
REMARK  101  A    between atoms: _287  and  _288
REMARK  102  A    between atoms: _291  and  _293
REMARK  103  A    between atoms: _293  and  _294
REMARK  104  A    between atoms: _293  and  _296
REMARK  105  A    between atoms: _299  and  _301
REMARK  106  A    between atoms: _301  and  _302
REMARK  107  A    between atoms: _301  and  _304
REMARK  108  A    between atoms: _304  and  _305
REMARK  109  A    between atoms: _308  and  _310
REMARK  110  A    between atoms: _310  and  _311
REMARK  111  A    between atoms: _310  and  _313
REMARK  112  A    between atoms: _313  and  _314
REMARK  113  A    between atoms: _316  and  _318
REMARK  114  A    between atoms: _318  and  _319
REMARK  115  A    between atoms: _318  and  _321
REMARK  116  A    between atoms: _321  and  _322
REMARK  117  A    between atoms: _325  and  _327
REMARK  118  A    between atoms: _327  and  _328
REMARK  119  A    between atoms: _327  and  _330
REMARK  120  A    between atoms: _330  and  _331
REMARK  121  A    between atoms: _334  and  _336
REMARK  122  A    between atoms: _336  and  _337
REMARK  123  A    between atoms: _336  and  _339
REMARK  124  A    between atoms: _339  and  _340
REMARK  125  A    between atoms: _344  and  _345
REMARK  126  A    between atoms: _351  and  _352
REMARK  127  A    between atoms: _357  and  _359
REMARK  128  A    between atoms: _359  and  _360
REMARK  129  A    between atoms: _359  and  _362
REMARK  130  A    between atoms: _362  and  _363
REMARK  131  A    between atoms: _366  and  _368
REMARK  132  A    between atoms: _368  and  _369
REMARK  133  A    between atoms: _368  and  _371
REMARK  134  A    between atoms: _371  and  _372
REMARK  135  A    between atoms: _375  and  _377
REMARK  136  A    between atoms: _377  and  _378
REMARK  137  A    between atoms: _377  and  _380
REMARK  138  A    between atoms: _382  and  _384
REMARK  139  A    between atoms: _384  and  _385
REMARK  140  A    between atoms: _384  and  _387
REMARK  141  A    between atoms: _390  and  _392
REMARK  142  A    between atoms: _392  and  _393
REMARK  143  A    between atoms: _392  and  _395
REMARK  144  A    between atoms: _395  and  _396
REMARK  145  A    between atoms: _406  and  _408
REMARK  146  A    between atoms: _408  and  _409
REMARK  147  A    between atoms: _408  and  _411
REMARK  148  A    between atoms: _411  and  _412
REMARK  149  A    between atoms: _417  and  _419
REMARK  150  A    between atoms: _419  and  _420
REMARK  151  A    between atoms: _419  and  _422
REMARK  152  A    between atoms: _422  and  _423
REMARK  153  A    between atoms: _423  and  _424
REMARK  154  A    between atoms: _424  and  _425
REMARK                            x       y       z     vdW  Elec       q    Type
REMARK                         _______ _______ _______ _____ _____    ______ ____
ROOT
ATOM      1  N   UNK A   4      17.940  23.964  17.196  0.00  0.00    +0.000 N 
ATOM      2  C   UNK A   4      16.572  24.107  17.278  0.00  0.00    +0.000 A 
ATOM      3  C   UNK A   4      16.071  22.855  17.414  0.00  0.00    +0.000 A 
ATOM      4  N   UNK A   4      17.139  21.989  17.406  0.00  0.00    +0.000 NA
ATOM      5  C   UNK A   4      18.255  22.683  17.273  0.00  0.00    +0.000 A 
ENDROOT
BRANCH   1  12
ATOM      6  C   UNK A   4      15.912  28.883  12.968  0.00  0.00    +0.000 C 
ATOM      7  C   UNK A   4      17.349  29.292  13.273  0.00  0.00    +0.000 C 
ATOM      8  C   UNK A   4      17.903  28.643  14.501  0.00  0.00    +0.000 A 
ATOM      9  N   UNK A   4      17.695  29.147  15.768  0.00  0.00    +0.000 NA
ATOM     10  C   UNK A   4      18.244  28.339  16.656  0.00  0.00    +0.000 A 
ATOM     11  N   UNK A   4      18.802  27.331  16.012  0.00  0.00    +0.000 N 
ATOM     12 ZN   UNK A   4      19.421  25.382  16.655  0.00  0.00    +0.000 Zn
ATOM     13  N   UNK A   4      20.418  24.454  14.951  0.00  0.00    +0.000 N 
ATOM     14  C   UNK A   4      21.600  24.485  14.366  0.00  0.00    +0.000 A 
ATOM     15  N   UNK A   4      21.548  23.732  13.283  0.00  0.00    +0.000 NA
ATOM     16  C   UNK A   4      20.283  23.192  13.161  0.00  0.00    +0.000 A 
ATOM     17  C   UNK A   4      19.891  22.283  12.036  0.00  0.00    +0.000 C 
ATOM     18  C   UNK A   4      19.366  23.015  10.799  0.00  0.00    +0.000 C 
ATOM     19  N   UNK A   4      18.092  23.681  11.067  0.00  0.00    +0.000 N 
ATOM     20  H   UNK A   4      17.246  23.093  11.210  0.00  0.00    +0.000 HD
ATOM     21  C   PHE A   5      17.965  25.000  11.136  0.00  0.00    +0.000 C 
ATOM     22  CA  PHE A   5      16.542  25.510  11.321  0.00  0.00    +0.000 C 
ATOM     23  N   PHE A   5      16.522  26.932  11.653  0.00  0.00    +0.000 N 
ATOM     24  H   PHE A   5      17.034  27.605  11.047  0.00  0.00    +0.000 HD
ATOM     25  O   PHE A   5      18.914  25.776  11.055  0.00  0.00    +0.000 OA
ATOM     26  C   UNK A   4      19.575  23.654  14.217  0.00  0.00    +0.000 A 
ATOM     27  C   UNK A   4      18.605  27.499  14.662  0.00  0.00    +0.000 A 
ATOM     28  C   UNK A   4      15.862  27.382  12.715  0.00  0.00    +0.000 C 
ATOM     29  O   UNK A   4      15.235  26.645  13.475  0.00  0.00    +0.000 OA
BRANCH   6  31
ATOM     30  C   UNK A   3      14.462  30.355  14.274  0.00  0.00    +0.000 C 
ATOM     31  N   UNK A   4      15.053  29.178  14.110  0.00  0.00    +0.000 N 
ATOM     32  H   UNK A   4      14.898  28.437  14.823  0.00  0.00    +0.000 HD
ATOM     33  O   UNK A   3      14.623  31.306  13.507  0.00  0.00    +0.000 OA
BRANCH  30  34
ATOM     34  C   UNK A   3      13.598  30.494  15.515  0.00  0.00    +0.000 C 
BRANCH  34  37
ATOM     35  C   LEU A   2      13.600  32.236  17.200  0.00  0.00    +0.000 C 
ATOM     36  O   LEU A   2      13.545  31.425  18.122  0.00  0.00    +0.000 OA
ATOM     37  N   UNK A   3      13.586  31.888  15.917  0.00  0.00    +0.000 N 
ATOM     38  H   UNK A   3      13.566  32.629  15.188  0.00  0.00    +0.000 HD
BRANCH  35  39
ATOM     39  CA  LEU A   2      13.668  33.722  17.482  0.00  0.00    +0.000 C 
BRANCH  39  41
ATOM     40  C   GLU A   1      13.240  35.255  19.323  0.00  0.00    +0.000 C 
ATOM     41  N   LEU A   2      13.378  34.005  18.889  0.00  0.00    +0.000 N 
ATOM     42  H   LEU A   2      13.278  33.216  19.560  0.00  0.00    +0.000 HD
ATOM     43  O   GLU A   1      13.338  36.226  18.576  0.00  0.00    +0.000 OA
BRANCH  40  44
ATOM     44  CA  GLU A   1      12.935  35.451  20.816  0.00  0.00    +0.000 C 
BRANCH  44  45
ATOM     45  CB  GLU A   1      14.265  35.548  21.609  0.00  0.00    +0.000 C 
ATOM     46  CG2 GLU A   1      14.989  34.216  21.589  0.00  0.00    +0.000 C 
BRANCH  45  47
ATOM     47  CG1 GLU A   1      15.141  36.655  21.021  0.00  0.00    +0.000 C 
ATOM     48  CD1 GLU A   1      16.442  36.878  21.776  0.00  0.00    +0.000 C 
ENDBRANCH  45  47
ENDBRANCH  44  45
BRANCH  44  49
ATOM     49  N   GLU A   1      12.060  34.422  21.370  0.00  0.00    +0.000 NA
ATOM     50  H   GLU A   1      12.389  33.437  21.424  0.00  0.00    +0.000 HD
ENDBRANCH  44  49
ENDBRANCH  40  44
ENDBRANCH  39  41
BRANCH  39  51
ATOM     51  CB  LEU A   2      15.074  34.217  17.116  0.00  0.00    +0.000 C 
BRANCH  51  52
ATOM     52  CG  LEU A   2      16.205  33.504  17.867  0.00  0.00    +0.000 C 
BRANCH  52  53
ATOM     53  CD  LEU A   2      16.897  32.408  17.051  0.00  0.00    +0.000 C 
ATOM     54  NE2 LEU A   2      18.178  32.607  16.771  0.00  0.00    +0.000 N 
ATOM     55 HE21 LEU A   2      18.653  33.472  17.098  0.00  0.00    +0.000 HD
ATOM     56 HE22 LEU A   2      18.707  31.898  16.225  0.00  0.00    +0.000 HD
ATOM     57  OE1 LEU A   2      16.291  31.400  16.686  0.00  0.00    +0.000 OA
ENDBRANCH  52  53
ENDBRANCH  51  52
ENDBRANCH  39  51
ENDBRANCH  35  39
ENDBRANCH  34  37
BRANCH  34  58
ATOM     58  C   UNK A   3      12.172  29.930  15.304  0.00  0.00    +0.000 C 
BRANCH  58  59
ATOM     59  C   UNK A   3      11.474  30.378  14.038  0.00  0.00    +0.000 A 
ATOM     60  C   UNK A   3      10.329  31.171  14.112  0.00  0.00    +0.000 A 
ATOM     61  C   UNK A   3       9.615  31.514  12.964  0.00  0.00    +0.000 A 
ATOM     62  C   UNK A   3      10.045  31.065  11.719  0.00  0.00    +0.000 A 
ATOM     63  C   UNK A   3      11.188  30.278  11.629  0.00  0.00    +0.000 A 
ATOM     64  C   UNK A   3      11.897  29.939  12.786  0.00  0.00    +0.000 A 
ENDBRANCH  58  59
ENDBRANCH  34  58
ENDBRANCH  30  34
ENDBRANCH   6  31
BRANCH  18  65
ATOM     65  C   UNK A   4      18.949  21.997   9.740  0.00  0.00    +0.000 C 
ATOM     66  O   UNK A   6      17.905  21.369   9.883  0.00  0.00    +0.000 OA
ENDBRANCH  18  65
BRANCH  22  67
ATOM     67  CB  PHE A   5      15.804  25.235  10.001  0.00  0.00    +0.000 C 
BRANCH  67  68
ATOM     68  CG  PHE A   5      14.355  25.627  10.000  0.00  0.00    +0.000 A 
ATOM     69  CD2 PHE A   5      13.363  24.653  10.083  0.00  0.00    +0.000 A 
ATOM     70  CE2 PHE A   5      12.010  24.998  10.020  0.00  0.00    +0.000 A 
ATOM     71  CZ  PHE A   5      11.641  26.333   9.875  0.00  0.00    +0.000 A 
ATOM     72  CE1 PHE A   5      12.628  27.320   9.796  0.00  0.00    +0.000 A 
ATOM     73  CD1 PHE A   5      13.979  26.959   9.860  0.00  0.00    +0.000 A 
ENDBRANCH  67  68
ENDBRANCH  22  67
ENDBRANCH   1  12
BRANCH   2  74
ATOM     74  C   UNK A   4      15.892  25.441  17.218  0.00  0.00    +0.000 C 
BRANCH  74  75
ATOM     75  C   UNK A   4      14.383  25.357  16.953  0.00  0.00    +0.000 C 
BRANCH  75  76
ATOM     76  N   UNK A   4      14.129  24.951  15.571  0.00  0.00    +0.000 N 
ATOM     77  C   LEU A   2      13.490  23.822  15.271  0.00  0.00    +0.000 C 
ATOM     78  O   LEU A   2      13.068  23.037  16.127  0.00  0.00    +0.000 OA
ATOM     79  H   UNK A   4      14.458  25.564  14.798  0.00  0.00    +0.000 HD
BRANCH  77  80
ATOM     80  CA  LEU A   2      13.291  23.528  13.786  0.00  0.00    +0.000 C 
BRANCH  80  81
ATOM     81  N   LEU A   2      13.721  22.162  13.505  0.00  0.00    +0.000 N 
ATOM     82  H   LEU A   2      13.068  21.383  13.725  0.00  0.00    +0.000 HD
ATOM     83  C   GLU A   1      14.907  21.864  12.982  0.00  0.00    +0.000 C 
ATOM     84  O   GLU A   1      15.742  22.709  12.659  0.00  0.00    +0.000 OA
BRANCH  83  85
ATOM     85  CA  GLU A   1      15.181  20.384  12.771  0.00  0.00    +0.000 C 
BRANCH  85  86
ATOM     86  N   GLU A   1      15.675  20.195  11.418  0.00  0.00    +0.000 NA
ATOM     87  H   GLU A   1      16.342  20.883  11.013  0.00  0.00    +0.000 HD
ENDBRANCH  85  86
BRANCH  85  88
ATOM     88  CB  GLU A   1      16.210  19.873  13.791  0.00  0.00    +0.000 C 
BRANCH  88  89
ATOM     89  CG  GLU A   1      15.680  19.778  15.221  0.00  0.00    +0.000 C 
BRANCH  89  90
ATOM     90  CD  GLU A   1      16.580  18.958  16.132  0.00  0.00    +0.000 C 
ATOM     91  OE2 GLU A   1      16.740  19.342  17.309  0.00  0.00    +0.000 OA
ATOM     92  OE1 GLU A   1      17.113  17.921  15.674  0.00  0.00    +0.000 OA
ENDBRANCH  89  90
ENDBRANCH  88  89
ENDBRANCH  85  88
ENDBRANCH  83  85
ENDBRANCH  80  81
BRANCH  80  93
ATOM     93  CB  LEU A   2      11.805  23.696  13.422  0.00  0.00    +0.000 C 
BRANCH  93  94
ATOM     94  CG  LEU A   2      11.052  24.932  13.936  0.00  0.00    +0.000 C 
ATOM     95  CD2 LEU A   2       9.608  24.872  13.453  0.00  0.00    +0.000 C 
ATOM     96  CD1 LEU A   2      11.722  26.208  13.448  0.00  0.00    +0.000 C 
ENDBRANCH  93  94
ENDBRANCH  80  93
ENDBRANCH  77  80
ENDBRANCH  75  76
BRANCH  75  97
ATOM     97  C   UNK A   4      13.753  26.707  17.286  0.00  0.00    +0.000 C 
ATOM     98  N   UNK A   4      12.842  26.702  18.255  0.00  0.00    +0.000 N 
ATOM     99  H   UNK A   4      12.593  25.797  18.703  0.00  0.00    +0.000 HD
ATOM    100  O   UNK A   4      14.079  27.723  16.673  0.00  0.00    +0.000 OA
BRANCH  98 101
ATOM    101  C   UNK A   4      12.180  27.917  18.713  0.00  0.00    +0.000 C 
BRANCH 101 102
ATOM    102  C   UNK A   4      12.842  28.235  20.048  0.00  0.00    +0.000 C 
ATOM    103  O   UNK A   4      12.715  27.476  21.003  0.00  0.00    +0.000 OA
ATOM    104  N   PHE A   5      13.566  29.350  20.096  0.00  0.00    +0.000 N 
ATOM    105  H   PHE A   5      13.605  29.962  19.256  0.00  0.00    +0.000 HD
BRANCH 104 106
ATOM    106  CA  PHE A   5      14.309  29.743  21.292  0.00  0.00    +0.000 C 
BRANCH 106 107
ATOM    107  C   PHE A   5      13.559  30.717  22.197  0.00  0.00    +0.000 C 
ATOM    108  N   UNK A   6      13.501  30.397  23.490  0.00  0.00    +0.000 N 
ATOM    109  H   UNK A   6      13.960  29.519  23.807  0.00  0.00    +0.000 HD
ATOM    110  O   PHE A   5      13.054  31.734  21.729  0.00  0.00    +0.000 OA
BRANCH 108 111
ATOM    111  C   UNK A   6      12.817  31.231  24.486  0.00  0.00    +0.000 C 
BRANCH 111 112
ATOM    112  C   UNK A   6      13.719  31.446  25.698  0.00  0.00    +0.000 C 
ATOM    113  N   TRP A   7      13.569  32.584  26.375  0.00  0.00    +0.000 N 
ATOM    114  H   TRP A   7      12.874  33.287  26.053  0.00  0.00    +0.000 HD
ATOM    115  O   UNK A   6      14.533  30.582  26.024  0.00  0.00    +0.000 OA
BRANCH 113 116
ATOM    116  CA  TRP A   7      14.373  32.852  27.565  0.00  0.00    +0.000 C 
BRANCH 116 117
ATOM    117  C   TRP A   7      13.505  33.087  28.799  0.00  0.00    +0.000 C 
ATOM    118  O   TRP A   7      12.404  33.635  28.711  0.00  0.00    +0.000 OA
ENDBRANCH 116 117
BRANCH 116 119
ATOM    119  CB  TRP A   7      15.321  34.042  27.347  0.00  0.00    +0.000 C 
BRANCH 119 120
ATOM    120  CG  TRP A   7      14.654  35.295  26.899  0.00  0.00    +0.000 A 
ATOM    121  CD2 TRP A   7      14.269  36.400  27.723  0.00  0.00    +0.000 A 
ATOM    122  CE3 TRP A   7      14.370  36.672  29.094  0.00  0.00    +0.000 A 
ATOM    123  CZ3 TRP A   7      13.876  37.884  29.572  0.00  0.00    +0.000 A 
ATOM    124  CH2 TRP A   7      13.287  38.821  28.705  0.00  0.00    +0.000 A 
ATOM    125  CZ2 TRP A   7      13.175  38.580  27.359  0.00  0.00    +0.000 A 
ATOM    126  CE2 TRP A   7      13.671  37.362  26.878  0.00  0.00    +0.000 A 
ATOM    127  NE1 TRP A   7      13.696  36.859  25.604  0.00  0.00    +0.000 N 
ATOM    128  HE1 TRP A   7      13.328  37.338  24.757  0.00  0.00    +0.000 HD
ATOM    129  CD1 TRP A   7      14.286  35.618  25.627  0.00  0.00    +0.000 A 
ENDBRANCH 119 120
ENDBRANCH 116 119
ENDBRANCH 113 116
ENDBRANCH 111 112
BRANCH 111 130
ATOM    130  C   UNK A   6      11.542  30.556  24.995  0.00  0.00    +0.000 C 
BRANCH 130 131
ATOM    131  C   UNK A   6      10.660  30.008  23.920  0.00  0.00    +0.000 A 
ATOM    132  C   UNK A   6       9.397  30.332  23.556  0.00  0.00    +0.000 A 
ATOM    133  N   UNK A   6       9.027  29.461  22.561  0.00  0.00    +0.000 NA
ATOM    134  C   UNK A   6      10.029  28.636  22.320  0.00  0.00    +0.000 A 
ATOM    135  N   UNK A   6      11.029  28.946  23.126  0.00  0.00    +0.000 NA
ENDBRANCH 130 131
ENDBRANCH 111 130
ENDBRANCH 108 111
ENDBRANCH 106 107
BRANCH 106 136
ATOM    136  CB  PHE A   5      15.668  30.382  20.891  0.00  0.00    +0.000 C 
ATOM    137  CG2 PHE A   5      16.532  30.608  22.126  0.00  0.00    +0.000 C 
ATOM    138  CG1 PHE A   5      16.386  29.486  19.881  0.00  0.00    +0.000 C 
ENDBRANCH 106 136
ENDBRANCH 104 106
ENDBRANCH 101 102
BRANCH 101 139
ATOM    139  C   UNK A   4      10.681  27.662  18.873  0.00  0.00    +0.000 C 
BRANCH 139 140
ATOM    140  C   UNK A   4       9.986  27.506  17.517  0.00  0.00    +0.000 C 
ATOM    141  C   UNK A   4       9.053  26.308  17.535  0.00  0.00    +0.000 C 
ATOM    142  C   UNK A   4       9.239  28.790  17.191  0.00  0.00    +0.000 C 
ENDBRANCH 139 140
ENDBRANCH 101 139
ENDBRANCH  98 101
ENDBRANCH  75  97
ENDBRANCH  74  75
ENDBRANCH   2  74
TORSDOF 46
REMARK  Name = ../refined-set-2016/1ttm/1ttm_pocket.pdb
REMARK  154 active torsions:
REMARK  status: ('A' for Active; 'I' for Inactive)
REMARK    1  A    between atoms: _1  and  _3
REMARK    2  A    between atoms: _3  and  _4
REMARK    3  A    between atoms: _3  and  _6
REMARK    4  A    between atoms: _6  and  _7
REMARK    5  A    between atoms: _17  and  _19
REMARK    6  A    between atoms: _19  and  _20
REMARK    7  A    between atoms: _19  and  _22
REMARK    8  A    between atoms: _22  and  _23
REMARK    9  A    between atoms: _28  and  _29
REMARK   10  A    between atoms: _31  and  _33
REMARK   11  A    between atoms: _33  and  _34
REMARK   12  A    between atoms: _33  and  _36
REMARK   13  A    between atoms: _36  and  _37
REMARK   14  A    between atoms: _40  and  _41
REMARK   15  A    between atoms: _46  and  _48
REMARK   16  A    between atoms: _48  and  _49
REMARK   17  A    between atoms: _48  and  _51
REMARK   18  A    between atoms: _51  and  _52
REMARK   19  A    between atoms: _57  and  _59
REMARK   20  A    between atoms: _59  and  _60
REMARK   21  A    between atoms: _59  and  _62
REMARK   22  A    between atoms: _62  and  _63
REMARK   23  A    between atoms: _68  and  _70
REMARK   24  A    between atoms: _70  and  _71
REMARK   25  A    between atoms: _70  and  _73
REMARK   26  A    between atoms: _73  and  _74
REMARK   27  A    between atoms: _79  and  _81
REMARK   28  A    between atoms: _81  and  _82
REMARK   29  A    between atoms: _81  and  _84
REMARK   30  A    between atoms: _84  and  _85
REMARK   31  A    between atoms: _85  and  _86
REMARK   32  A    between atoms: _89  and  _91
REMARK   33  A    between atoms: _91  and  _92
REMARK   34  A    between atoms: _91  and  _94
REMARK   35  A    between atoms: _94  and  _95
REMARK   36  A    between atoms: _98  and  _100
REMARK   37  A    between atoms: _100  and  _101
REMARK   38  A    between atoms: _100  and  _103
REMARK   39  A    between atoms: _103  and  _104
REMARK   40  A    between atoms: _104  and  _105
REMARK   41  A    between atoms: _110  and  _112
REMARK   42  A    between atoms: _112  and  _113
REMARK   43  A    between atoms: _112  and  _115
REMARK   44  A    between atoms: _115  and  _116
REMARK   45  A    between atoms: _122  and  _124
REMARK   46  A    between atoms: _135  and  _138
REMARK   47  A    between atoms: _138  and  _139
REMARK   48  A    between atoms: _147  and  _148
REMARK   49  A    between atoms: _156  and  _158
REMARK   50  A    between atoms: _158  and  _159
REMARK   51  A    between atoms: _158  and  _161
REMARK   52  A    between atoms: _161  and  _162
REMARK   53  A    between atoms: _162  and  _163
REMARK   54  A    between atoms: _166  and  _168
REMARK   55  A    between atoms: _168  and  _169
REMARK   56  A    between atoms: _168  and  _171
REMARK   57  A    between atoms: _171  and  _172
REMARK   58  A    between atoms: _177  and  _179
REMARK   59  A    between atoms: _179  and  _180
REMARK   60  A    between atoms: _179  and  _182
REMARK   61  A    between atoms: _182  and  _183
REMARK   62  A    between atoms: _183  and  _184
REMARK   63  A    between atoms: _187  and  _189
REMARK   64  A    between atoms: _189  and  _190
REMARK   65  A    between atoms: _189  and  _192
REMARK   66  A    between atoms: _192  and  _193
REMARK   67  A    between atoms: _196  and  _198
REMARK   68  A    between atoms: _198  and  _199
REMARK   69  A    between atoms: _198  and  _201
REMARK   70  A    between atoms: _201  and  _202
REMARK   71  A    between atoms: _203  and  ZN_434
REMARK   72  A    between atoms: _207  and  _209
REMARK   73  A    between atoms: _209  and  _210
REMARK   74  A    between atoms: _209  and  _212
REMARK   75  A    between atoms: _212  and  _213
REMARK   76  A    between atoms: _216  and  _218
REMARK   77  A    between atoms: _218  and  _219
REMARK   78  A    between atoms: _218  and  _221
REMARK   79  A    between atoms: _224  and  _226
REMARK   80  A    between atoms: _226  and  _227
REMARK   81  A    between atoms: _226  and  _229
REMARK   82  A    between atoms: _229  and  _230
REMARK   83  A    between atoms: _235  and  _237
REMARK   84  A    between atoms: _237  and  _238
REMARK   85  A    between atoms: _237  and  _240
REMARK   86  A    between atoms: _240  and  _241
REMARK   87  A    between atoms: _251  and  _253
REMARK   88  A    between atoms: _253  and  _254
REMARK   89  A    between atoms: _253  and  _256
REMARK   90  A    between atoms: _256  and  _257
REMARK   91  A    between atoms: _263  and  _265
REMARK   92  A    between atoms: _265  and  _266
REMARK   93  A    between atoms: _268  and  _270
REMARK   94  A    between atoms: _270  and  _271
REMARK   95  A    between atoms: _270  and  _273
REMARK   96  A    between atoms: _276  and  _278
REMARK   97  A    between atoms: _278  and  _279
REMARK   98  A    between atoms: _278  and  _281
REMARK   99  A    between atoms: _281  and  _282
REMARK  100  A    between atoms: _285  and  _287
REMARK  101  A    between atoms: _287  and  _288
REMARK  102  A    between atoms: _291  and  _293
REMARK  103  A    between atoms: _293  and  _294
REMARK  104  A    between atoms: _293  and  _296
REMARK  105  A    between atoms: _299  and  _301
REMARK  106  A    between atoms: _301  and  _302
REMARK  107  A    between atoms: _301  and  _304
REMARK  108  A    between atoms: _304  and  _305
REMARK  109  A    between atoms: _308  and  _310
REMARK  110  A    between atoms: _310  and  _311
REMARK  111  A    between atoms: _310  and  _313
REMARK  112  A    between atoms: _313  and  _314
REMARK  113  A    between atoms: _316  and  _318
REMARK  114  A    between atoms: _318  and  _319
REMARK  115  A    between atoms: _318  and  _321
REMARK  116  A    between atoms: _321  and  _322
REMARK  117  A    between atoms: _325  and  _327
REMARK  118  A    between atoms: _327  and  _328
REMARK  119  A    between atoms: _327  and  _330
REMARK  120  A    between atoms: _330  and  _331
REMARK  121  A    between atoms: _334  and  _336
REMARK  122  A    between atoms: _336  and  _337
REMARK  123  A    between atoms: _336  and  _339
REMARK  124  A    between atoms: _339  and  _340
REMARK  125  A    between atoms: _344  and  _345
REMARK  126  A    between atoms: _351  and  _352
REMARK  127  A    between atoms: _357  and  _359
REMARK  128  A    between atoms: _359  and  _360
REMARK  129  A    between atoms: _359  and  _362
REMARK  130  A    between atoms: _362  and  _363
REMARK  131  A    between atoms: _366  and  _368
REMARK  132  A    between atoms: _368  and  _369
REMARK  133  A    between atoms: _368  and  _371
REMARK  134  A    between atoms: _371  and  _372
REMARK  135  A    between atoms: _375  and  _377
REMARK  136  A    between atoms: _377  and  _378
REMARK  137  A    between atoms: _377  and  _380
REMARK  138  A    between atoms: _382  and  _384
REMARK  139  A    between atoms: _384  and  _385
REMARK  140  A    between atoms: _384  and  _387
REMARK  141  A    between atoms: _390  and  _392
REMARK  142  A    between atoms: _392  and  _393
REMARK  143  A    between atoms: _392  and  _395
REMARK  144  A    between atoms: _395  and  _396
REMARK  145  A    between atoms: _406  and  _408
REMARK  146  A    between atoms: _408  and  _409
REMARK  147  A    between atoms: _408  and  _411
REMARK  148  A    between atoms: _411  and  _412
REMARK  149  A    between atoms: _417  and  _419
REMARK  150  A    between atoms: _419  and  _420
REMARK  151  A    between atoms: _419  and  _422
REMARK  152  A    between atoms: _422  and  _423
REMARK  153  A    between atoms: _423  and  _424
REMARK  154  A    between atoms: _424  and  _425
REMARK                            x       y       z     vdW  Elec       q    Type
REMARK                         _______ _______ _______ _____ _____    ______ ____
ROOT
ATOM      1  C   GLU A   1      20.305  16.380  16.327  0.00  0.00    +0.238 C 
ATOM      2  N   HIS A   2      19.084  16.378  16.847  0.00  0.00    -0.298 N 
ATOM      3  H   HIS A   2      18.421  17.151  16.634  0.00  0.00    +0.150 HD
ATOM      4  O   GLU A   1      21.139  15.517  16.601  0.00  0.00    -0.274 OA
ENDROOT
BRANCH   1   5
ATOM      5  CA  GLU A   1      20.642  17.510  15.366  0.00  0.00    +0.145 C 
BRANCH   5   6
ATOM      6  N   GLU A   1      19.570  17.579  14.378  0.00  0.00    -0.238 NA
ATOM      7  H   GLU A   1      18.708  18.120  14.591  0.00  0.00    +0.142 HD
ENDBRANCH   5   6
BRANCH   5   8
ATOM      8  CB  GLU A   1      20.788  18.844  16.104  0.00  0.00    +0.038 C 
BRANCH   8   9
ATOM      9  CG  GLU A   1      21.134  19.989  15.163  0.00  0.00    +0.116 C 
BRANCH   9  10
ATOM     10  CD  GLU A   1      21.867  21.127  15.843  0.00  0.00    +0.365 C 
ATOM     11  OE2 GLU A   1      21.285  21.788  16.729  0.00  0.00    -0.246 OA
ATOM     12  OE1 GLU A   1      23.035  21.363  15.480  0.00  0.00    -0.246 OA
ENDBRANCH   9  10
ENDBRANCH   8   9
ENDBRANCH   5   8
ENDBRANCH   1   5
BRANCH   2  13
ATOM     13  CA  HIS A   2      18.682  15.286  17.717  0.00  0.00    +0.143 C 
BRANCH  13  14
ATOM     14  C   HIS A   2      18.309  14.134  16.788  0.00  0.00    +0.227 C 
ATOM     15  O   HIS A   2      17.953  14.353  15.628  0.00  0.00    -0.286 OA
ENDBRANCH  13  14
BRANCH  13  16
ATOM     16  CB  HIS A   2      17.470  15.663  18.585  0.00  0.00    +0.075 C 
BRANCH  16  17
ATOM     17  CG  HIS A   2      17.795  16.623  19.687  0.00  0.00    +0.082 A 
ATOM     18  CD2 HIS A   2      18.220  16.408  20.957  0.00  0.00    +0.115 A 
ATOM     19  NE2 HIS A   2      18.450  17.640  21.520  0.00  0.00    -0.221 NA
ATOM     20  CE1 HIS A   2      18.172  18.578  20.631  0.00  0.00    +0.199 A 
ATOM     21  ND1 HIS A   2      17.772  17.991  19.516  0.00  0.00    -0.227 NA
ENDBRANCH  16  17
ENDBRANCH  13  16
ENDBRANCH   2  13
TORSDOF 9
REMARK  Name = ../refined-set-2016/1ttm/1ttm_pocket.pdb
REMARK  154 active torsions:
REMARK  status: ('A' for Active; 'I' for Inactive)
REMARK    1  A    between atoms: _1  and  _3
REMARK    2  A    between atoms: _3  and  _4
REMARK    3  A    between atoms: _3  and  _6
REMARK    4  A    between atoms: _6  and  _7
REMARK    5  A    between atoms: _17  and  _19
REMARK    6  A    between atoms: _19  and  _20
REMARK    7  A    between atoms: _19  and  _22
REMARK    8  A    between atoms: _22  and  _23
REMARK    9  A    between atoms: _28  and  _29
REMARK   10  A    between atoms: _31  and  _33
REMARK   11  A    between atoms: _33  and  _34
REMARK   12  A    between atoms: _33  and  _36
REMARK   13  A    between atoms: _36  and  _37
REMARK   14  A    between atoms: _40  and  _41
REMARK   15  A    between atoms: _46  and  _48
REMARK   16  A    between atoms: _48  and  _49
REMARK   17  A    between atoms: _48  and  _51
REMARK   18  A    between atoms: _51  and  _52
REMARK   19  A    between atoms: _57  and  _59
REMARK   20  A    between atoms: _59  and  _60
REMARK   21  A    between atoms: _59  and  _62
REMARK   22  A    between atoms: _62  and  _63
REMARK   23  A    between atoms: _68  and  _70
REMARK   24  A    between atoms: _70  and  _71
REMARK   25  A    between atoms: _70  and  _73
REMARK   26  A    between atoms: _73  and  _74
REMARK   27  A    between atoms: _79  and  _81
REMARK   28  A    between atoms: _81  and  _82
REMARK   29  A    between atoms: _81  and  _84
REMARK   30  A    between atoms: _84  and  _85
REMARK   31  A    between atoms: _85  and  _86
REMARK   32  A    between atoms: _89  and  _91
REMARK   33  A    between atoms: _91  and  _92
REMARK   34  A    between atoms: _91  and  _94
REMARK   35  A    between atoms: _94  and  _95
REMARK   36  A    between atoms: _98  and  _100
REMARK   37  A    between atoms: _100  and  _101
REMARK   38  A    between atoms: _100  and  _103
REMARK   39  A    between atoms: _103  and  _104
REMARK   40  A    between atoms: _104  and  _105
REMARK   41  A    between atoms: _110  and  _112
REMARK   42  A    between atoms: _112  and  _113
REMARK   43  A    between atoms: _112  and  _115
REMARK   44  A    between atoms: _115  and  _116
REMARK   45  A    between atoms: _122  and  _124
REMARK   46  A    between atoms: _135  and  _138
REMARK   47  A    between atoms: _138  and  _139
REMARK   48  A    between atoms: _147  and  _148
REMARK   49  A    between atoms: _156  and  _158
REMARK   50  A    between atoms: _158  and  _159
REMARK   51  A    between atoms: _158  and  _161
REMARK   52  A    between atoms: _161  and  _162
REMARK   53  A    between atoms: _162  and  _163
REMARK   54  A    between atoms: _166  and  _168
REMARK   55  A    between atoms: _168  and  _169
REMARK   56  A    between atoms: _168  and  _171
REMARK   57  A    between atoms: _171  and  _172
REMARK   58  A    between atoms: _177  and  _179
REMARK   59  A    between atoms: _179  and  _180
REMARK   60  A    between atoms: _179  and  _182
REMARK   61  A    between atoms: _182  and  _183
REMARK   62  A    between atoms: _183  and  _184
REMARK   63  A    between atoms: _187  and  _189
REMARK   64  A    between atoms: _189  and  _190
REMARK   65  A    between atoms: _189  and  _192
REMARK   66  A    between atoms: _192  and  _193
REMARK   67  A    between atoms: _196  and  _198
REMARK   68  A    between atoms: _198  and  _199
REMARK   69  A    between atoms: _198  and  _201
REMARK   70  A    between atoms: _201  and  _202
REMARK   71  A    between atoms: _203  and  ZN_434
REMARK   72  A    between atoms: _207  and  _209
REMARK   73  A    between atoms: _209  and  _210
REMARK   74  A    between atoms: _209  and  _212
REMARK   75  A    between atoms: _212  and  _213
REMARK   76  A    between atoms: _216  and  _218
REMARK   77  A    between atoms: _218  and  _219
REMARK   78  A    between atoms: _218  and  _221
REMARK   79  A    between atoms: _224  and  _226
REMARK   80  A    between atoms: _226  and  _227
REMARK   81  A    between atoms: _226  and  _229
REMARK   82  A    between atoms: _229  and  _230
REMARK   83  A    between atoms: _235  and  _237
REMARK   84  A    between atoms: _237  and  _238
REMARK   85  A    between atoms: _237  and  _240
REMARK   86  A    between atoms: _240  and  _241
REMARK   87  A    between atoms: _251  and  _253
REMARK   88  A    between atoms: _253  and  _254
REMARK   89  A    between atoms: _253  and  _256
REMARK   90  A    between atoms: _256  and  _257
REMARK   91  A    between atoms: _263  and  _265
REMARK   92  A    between atoms: _265  and  _266
REMARK   93  A    between atoms: _268  and  _270
REMARK   94  A    between atoms: _270  and  _271
REMARK   95  A    between atoms: _270  and  _273
REMARK   96  A    between atoms: _276  and  _278
REMARK   97  A    between atoms: _278  and  _279
REMARK   98  A    between atoms: _278  and  _281
REMARK   99  A    between atoms: _281  and  _282
REMARK  100  A    between atoms: _285  and  _287
REMARK  101  A    between atoms: _287  and  _288
REMARK  102  A    between atoms: _291  and  _293
REMARK  103  A    between atoms: _293  and  _294
REMARK  104  A    between atoms: _293  and  _296
REMARK  105  A    between atoms: _299  and  _301
REMARK  106  A    between atoms: _301  and  _302
REMARK  107  A    between atoms: _301  and  _304
REMARK  108  A    between atoms: _304  and  _305
REMARK  109  A    between atoms: _308  and  _310
REMARK  110  A    between atoms: _310  and  _311
REMARK  111  A    between atoms: _310  and  _313
REMARK  112  A    between atoms: _313  and  _314
REMARK  113  A    between atoms: _316  and  _318
REMARK  114  A    between atoms: _318  and  _319
REMARK  115  A    between atoms: _318  and  _321
REMARK  116  A    between atoms: _321  and  _322
REMARK  117  A    between atoms: _325  and  _327
REMARK  118  A    between atoms: _327  and  _328
REMARK  119  A    between atoms: _327  and  _330
REMARK  120  A    between atoms: _330  and  _331
REMARK  121  A    between atoms: _334  and  _336
REMARK  122  A    between atoms: _336  and  _337
REMARK  123  A    between atoms: _336  and  _339
REMARK  124  A    between atoms: _339  and  _340
REMARK  125  A    between atoms: _344  and  _345
REMARK  126  A    between atoms: _351  and  _352
REMARK  127  A    between atoms: _357  and  _359
REMARK  128  A    between atoms: _359  and  _360
REMARK  129  A    between atoms: _359  and  _362
REMARK  130  A    between atoms: _362  and  _363
REMARK  131  A    between atoms: _366  and  _368
REMARK  132  A    between atoms: _368  and  _369
REMARK  133  A    between atoms: _368  and  _371
REMARK  134  A    between atoms: _371  and  _372
REMARK  135  A    between atoms: _375  and  _377
REMARK  136  A    between atoms: _377  and  _378
REMARK  137  A    between atoms: _377  and  _380
REMARK  138  A    between atoms: _382  and  _384
REMARK  139  A    between atoms: _384  and  _385
REMARK  140  A    between atoms: _384  and  _387
REMARK  141  A    between atoms: _390  and  _392
REMARK  142  A    between atoms: _392  and  _393
REMARK  143  A    between atoms: _392  and  _395
REMARK  144  A    between atoms: _395  and  _396
REMARK  145  A    between atoms: _406  and  _408
REMARK  146  A    between atoms: _408  and  _409
REMARK  147  A    between atoms: _408  and  _411
REMARK  148  A    between atoms: _411  and  _412
REMARK  149  A    between atoms: _417  and  _419
REMARK  150  A    between atoms: _419  and  _420
REMARK  151  A    between atoms: _419  and  _422
REMARK  152  A    between atoms: _422  and  _423
REMARK  153  A    between atoms: _423  and  _424
REMARK  154  A    between atoms: _424  and  _425
REMARK                            x       y       z     vdW  Elec       q    Type
REMARK                         _______ _______ _______ _____ _____    ______ ____
ROOT
ATOM      1  CA  PHE A   1      18.132  37.332  27.237  0.00  0.00    +0.149 C 
ENDROOT
BRANCH   1   2
ATOM      2  C   PHE A   1      19.588  37.156  27.664  0.00  0.00    +0.239 C 
ATOM      3  O   PHE A   1      20.028  36.047  27.972  0.00  0.00    -0.274 OA
ATOM      4  N   GLY A   2      20.332  38.257  27.664  0.00  0.00    -0.297 N 
ATOM      5  H   GLY A   2      19.900  39.165  27.399  0.00  0.00    +0.150 HD
BRANCH   4   6
ATOM      6  CA  GLY A   2      21.737  38.214  28.027  0.00  0.00    +0.163 C 
BRANCH   6   7
ATOM      7  C   GLY A   2      22.066  37.584  29.365  0.00  0.00    +0.229 C 
ATOM      8  O   GLY A   2      23.047  36.853  29.485  0.00  0.00    -0.286 OA
ENDBRANCH   6   7
ENDBRANCH   4   6
ENDBRANCH   1   2
BRANCH   1   9
ATOM      9  N   PHE A   1      17.508  38.479  27.871  0.00  0.00    -0.238 NA
ATOM     10  H   PHE A   1      17.057  39.198  27.270  0.00  0.00    +0.142 HD
ENDBRANCH   1   9
BRANCH   1  11
ATOM     11  CB  PHE A   1      18.075  37.494  25.719  0.00  0.00    +0.053 C 
BRANCH  11  12
ATOM     12  CG  PHE A   1      18.861  36.464  24.982  0.00  0.00    -0.020 A 
ATOM     13  CD2 PHE A   1      20.200  36.685  24.686  0.00  0.00    -0.004 A 
ATOM     14  CE2 PHE A   1      20.955  35.710  24.065  0.00  0.00    -0.000 A 
ATOM     15  CZ  PHE A   1      20.377  34.492  23.722  0.00  0.00    -0.000 A 
ATOM     16  CE1 PHE A   1      19.040  34.260  24.007  0.00  0.00    -0.000 A 
ATOM     17  CD1 PHE A   1      18.288  35.246  24.635  0.00  0.00    -0.004 A 
ENDBRANCH  11  12
ENDBRANCH   1  11
TORSDOF 6
REMARK  Name = ../refined-set-2016/1ttm/1ttm_pocket.pdb
REMARK  154 active torsions:
REMARK  status: ('A' for Active; 'I' for Inactive)
REMARK    1  A    between atoms: _1  and  _3
REMARK    2  A    between atoms: _3  and  _4
REMARK    3  A    between atoms: _3  and  _6
REMARK    4  A    between atoms: _6  and  _7
REMARK    5  A    between atoms: _17  and  _19
REMARK    6  A    between atoms: _19  and  _20
REMARK    7  A    between atoms: _19  and  _22
REMARK    8  A    between atoms: _22  and  _23
REMARK    9  A    between atoms: _28  and  _29
REMARK   10  A    between atoms: _31  and  _33
REMARK   11  A    between atoms: _33  and  _34
REMARK   12  A    between atoms: _33  and  _36
REMARK   13  A    between atoms: _36  and  _37
REMARK   14  A    between atoms: _40  and  _41
REMARK   15  A    between atoms: _46  and  _48
REMARK   16  A    between atoms: _48  and  _49
REMARK   17  A    between atoms: _48  and  _51
REMARK   18  A    between atoms: _51  and  _52
REMARK   19  A    between atoms: _57  and  _59
REMARK   20  A    between atoms: _59  and  _60
REMARK   21  A    between atoms: _59  and  _62
REMARK   22  A    between atoms: _62  and  _63
REMARK   23  A    between atoms: _68  and  _70
REMARK   24  A    between atoms: _70  and  _71
REMARK   25  A    between atoms: _70  and  _73
REMARK   26  A    between atoms: _73  and  _74
REMARK   27  A    between atoms: _79  and  _81
REMARK   28  A    between atoms: _81  and  _82
REMARK   29  A    between atoms: _81  and  _84
REMARK   30  A    between atoms: _84  and  _85
REMARK   31  A    between atoms: _85  and  _86
REMARK   32  A    between atoms: _89  and  _91
REMARK   33  A    between atoms: _91  and  _92
REMARK   34  A    between atoms: _91  and  _94
REMARK   35  A    between atoms: _94  and  _95
REMARK   36  A    between atoms: _98  and  _100
REMARK   37  A    between atoms: _100  and  _101
REMARK   38  A    between atoms: _100  and  _103
REMARK   39  A    between atoms: _103  and  _104
REMARK   40  A    between atoms: _104  and  _105
REMARK   41  A    between atoms: _110  and  _112
REMARK   42  A    between atoms: _112  and  _113
REMARK   43  A    between atoms: _112  and  _115
REMARK   44  A    between atoms: _115  and  _116
REMARK   45  A    between atoms: _122  and  _124
REMARK   46  A    between atoms: _135  and  _138
REMARK   47  A    between atoms: _138  and  _139
REMARK   48  A    between atoms: _147  and  _148
REMARK   49  A    between atoms: _156  and  _158
REMARK   50  A    between atoms: _158  and  _159
REMARK   51  A    between atoms: _158  and  _161
REMARK   52  A    between atoms: _161  and  _162
REMARK   53  A    between atoms: _162  and  _163
REMARK   54  A    between atoms: _166  and  _168
REMARK   55  A    between atoms: _168  and  _169
REMARK   56  A    between atoms: _168  and  _171
REMARK   57  A    between atoms: _171  and  _172
REMARK   58  A    between atoms: _177  and  _179
REMARK   59  A    between atoms: _179  and  _180
REMARK   60  A    between atoms: _179  and  _182
REMARK   61  A    between atoms: _182  and  _183
REMARK   62  A    between atoms: _183  and  _184
REMARK   63  A    between atoms: _187  and  _189
REMARK   64  A    between atoms: _189  and  _190
REMARK   65  A    between atoms: _189  and  _192
REMARK   66  A    between atoms: _192  and  _193
REMARK   67  A    between atoms: _196  and  _198
REMARK   68  A    between atoms: _198  and  _199
REMARK   69  A    between atoms: _198  and  _201
REMARK   70  A    between atoms: _201  and  _202
REMARK   71  A    between atoms: _203  and  ZN_434
REMARK   72  A    between atoms: _207  and  _209
REMARK   73  A    between atoms: _209  and  _210
REMARK   74  A    between atoms: _209  and  _212
REMARK   75  A    between atoms: _212  and  _213
REMARK   76  A    between atoms: _216  and  _218
REMARK   77  A    between atoms: _218  and  _219
REMARK   78  A    between atoms: _218  and  _221
REMARK   79  A    between atoms: _224  and  _226
REMARK   80  A    between atoms: _226  and  _227
REMARK   81  A    between atoms: _226  and  _229
REMARK   82  A    between atoms: _229  and  _230
REMARK   83  A    between atoms: _235  and  _237
REMARK   84  A    between atoms: _237  and  _238
REMARK   85  A    between atoms: _237  and  _240
REMARK   86  A    between atoms: _240  and  _241
REMARK   87  A    between atoms: _251  and  _253
REMARK   88  A    between atoms: _253  and  _254
REMARK   89  A    between atoms: _253  and  _256
REMARK   90  A    between atoms: _256  and  _257
REMARK   91  A    between atoms: _263  and  _265
REMARK   92  A    between atoms: _265  and  _266
REMARK   93  A    between atoms: _268  and  _270
REMARK   94  A    between atoms: _270  and  _271
REMARK   95  A    between atoms: _270  and  _273
REMARK   96  A    between atoms: _276  and  _278
REMARK   97  A    between atoms: _278  and  _279
REMARK   98  A    between atoms: _278  and  _281
REMARK   99  A    between atoms: _281  and  _282
REMARK  100  A    between atoms: _285  and  _287
REMARK  101  A    between atoms: _287  and  _288
REMARK  102  A    between atoms: _291  and  _293
REMARK  103  A    between atoms: _293  and  _294
REMARK  104  A    between atoms: _293  and  _296
REMARK  105  A    between atoms: _299  and  _301
REMARK  106  A    between atoms: _301  and  _302
REMARK  107  A    between atoms: _301  and  _304
REMARK  108  A    between atoms: _304  and  _305
REMARK  109  A    between atoms: _308  and  _310
REMARK  110  A    between atoms: _310  and  _311
REMARK  111  A    between atoms: _310  and  _313
REMARK  112  A    between atoms: _313  and  _314
REMARK  113  A    between atoms: _316  and  _318
REMARK  114  A    between atoms: _318  and  _319
REMARK  115  A    between atoms: _318  and  _321
REMARK  116  A    between atoms: _321  and  _322
REMARK  117  A    between atoms: _325  and  _327
REMARK  118  A    between atoms: _327  and  _328
REMARK  119  A    between atoms: _327  and  _330
REMARK  120  A    between atoms: _330  and  _331
REMARK  121  A    between atoms: _334  and  _336
REMARK  122  A    between atoms: _336  and  _337
REMARK  123  A    between atoms: _336  and  _339
REMARK  124  A    between atoms: _339  and  _340
REMARK  125  A    between atoms: _344  and  _345
REMARK  126  A    between atoms: _351  and  _352
REMARK  127  A    between atoms: _357  and  _359
REMARK  128  A    between atoms: _359  and  _360
REMARK  129  A    between atoms: _359  and  _362
REMARK  130  A    between atoms: _362  and  _363
REMARK  131  A    between atoms: _366  and  _368
REMARK  132  A    between atoms: _368  and  _369
REMARK  133  A    between atoms: _368  and  _371
REMARK  134  A    between atoms: _371  and  _372
REMARK  135  A    between atoms: _375  and  _377
REMARK  136  A    between atoms: _377  and  _378
REMARK  137  A    between atoms: _377  and  _380
REMARK  138  A    between atoms: _382  and  _384
REMARK  139  A    between atoms: _384  and  _385
REMARK  140  A    between atoms: _384  and  _387
REMARK  141  A    between atoms: _390  and  _392
REMARK  142  A    between atoms: _392  and  _393
REMARK  143  A    between atoms: _392  and  _395
REMARK  144  A    between atoms: _395  and  _396
REMARK  145  A    between atoms: _406  and  _408
REMARK  146  A    between atoms: _408  and  _409
REMARK  147  A    between atoms: _408  and  _411
REMARK  148  A    between atoms: _411  and  _412
REMARK  149  A    between atoms: _417  and  _419
REMARK  150  A    between atoms: _419  and  _420
REMARK  151  A    between atoms: _419  and  _422
REMARK  152  A    between atoms: _422  and  _423
REMARK  153  A    between atoms: _423  and  _424
REMARK  154  A    between atoms: _424  and  _425
REMARK                            x       y       z     vdW  Elec       q    Type
REMARK                         _______ _______ _______ _____ _____    ______ ____
ROOT
ATOM      1  CA  VAL A   1      22.220  32.401  29.164  0.00  0.00    +0.133 C 
ENDROOT
BRANCH   1   2
ATOM      2  CB  VAL A   1      22.897  32.903  27.868  0.00  0.00    +0.023 C 
ATOM      3  CG2 VAL A   1      23.648  34.193  28.132  0.00  0.00    +0.002 C 
ATOM      4  CG1 VAL A   1      21.852  33.111  26.793  0.00  0.00    +0.002 C 
ENDBRANCH   1   2
BRANCH   1   5
ATOM      5  N   VAL A   1      21.247  33.372  29.663  0.00  0.00    -0.239 NA
ATOM      6  H   VAL A   1      21.176  34.303  29.205  0.00  0.00    +0.142 HD
ENDBRANCH   1   5
BRANCH   1   7
ATOM      7  C   VAL A   1      23.302  32.039  30.173  0.00  0.00    +0.224 C 
ATOM      8  O   VAL A   1      24.049  31.081  29.976  0.00  0.00    -0.287 OA
ENDBRANCH   1   7
TORSDOF 3
REMARK  Name = ../refined-set-2016/1ttm/1ttm_pocket.pdb
REMARK  154 active torsions:
REMARK  status: ('A' for Active; 'I' for Inactive)
REMARK    1  A    between atoms: _1  and  _3
REMARK    2  A    between atoms: _3  and  _4
REMARK    3  A    between atoms: _3  and  _6
REMARK    4  A    between atoms: _6  and  _7
REMARK    5  A    between atoms: _17  and  _19
REMARK    6  A    between atoms: _19  and  _20
REMARK    7  A    between atoms: _19  and  _22
REMARK    8  A    between atoms: _22  and  _23
REMARK    9  A    between atoms: _28  and  _29
REMARK   10  A    between atoms: _31  and  _33
REMARK   11  A    between atoms: _33  and  _34
REMARK   12  A    between atoms: _33  and  _36
REMARK   13  A    between atoms: _36  and  _37
REMARK   14  A    between atoms: _40  and  _41
REMARK   15  A    between atoms: _46  and  _48
REMARK   16  A    between atoms: _48  and  _49
REMARK   17  A    between atoms: _48  and  _51
REMARK   18  A    between atoms: _51  and  _52
REMARK   19  A    between atoms: _57  and  _59
REMARK   20  A    between atoms: _59  and  _60
REMARK   21  A    between atoms: _59  and  _62
REMARK   22  A    between atoms: _62  and  _63
REMARK   23  A    between atoms: _68  and  _70
REMARK   24  A    between atoms: _70  and  _71
REMARK   25  A    between atoms: _70  and  _73
REMARK   26  A    between atoms: _73  and  _74
REMARK   27  A    between atoms: _79  and  _81
REMARK   28  A    between atoms: _81  and  _82
REMARK   29  A    between atoms: _81  and  _84
REMARK   30  A    between atoms: _84  and  _85
REMARK   31  A    between atoms: _85  and  _86
REMARK   32  A    between atoms: _89  and  _91
REMARK   33  A    between atoms: _91  and  _92
REMARK   34  A    between atoms: _91  and  _94
REMARK   35  A    between atoms: _94  and  _95
REMARK   36  A    between atoms: _98  and  _100
REMARK   37  A    between atoms: _100  and  _101
REMARK   38  A    between atoms: _100  and  _103
REMARK   39  A    between atoms: _103  and  _104
REMARK   40  A    between atoms: _104  and  _105
REMARK   41  A    between atoms: _110  and  _112
REMARK   42  A    between atoms: _112  and  _113
REMARK   43  A    between atoms: _112  and  _115
REMARK   44  A    between atoms: _115  and  _116
REMARK   45  A    between atoms: _122  and  _124
REMARK   46  A    between atoms: _135  and  _138
REMARK   47  A    between atoms: _138  and  _139
REMARK   48  A    between atoms: _147  and  _148
REMARK   49  A    between atoms: _156  and  _158
REMARK   50  A    between atoms: _158  and  _159
REMARK   51  A    between atoms: _158  and  _161
REMARK   52  A    between atoms: _161  and  _162
REMARK   53  A    between atoms: _162  and  _163
REMARK   54  A    between atoms: _166  and  _168
REMARK   55  A    between atoms: _168  and  _169
REMARK   56  A    between atoms: _168  and  _171
REMARK   57  A    between atoms: _171  and  _172
REMARK   58  A    between atoms: _177  and  _179
REMARK   59  A    between atoms: _179  and  _180
REMARK   60  A    between atoms: _179  and  _182
REMARK   61  A    between atoms: _182  and  _183
REMARK   62  A    between atoms: _183  and  _184
REMARK   63  A    between atoms: _187  and  _189
REMARK   64  A    between atoms: _189  and  _190
REMARK   65  A    between atoms: _189  and  _192
REMARK   66  A    between atoms: _192  and  _193
REMARK   67  A    between atoms: _196  and  _198
REMARK   68  A    between atoms: _198  and  _199
REMARK   69  A    between atoms: _198  and  _201
REMARK   70  A    between atoms: _201  and  _202
REMARK   71  A    between atoms: _203  and  ZN_434
REMARK   72  A    between atoms: _207  and  _209
REMARK   73  A    between atoms: _209  and  _210
REMARK   74  A    between atoms: _209  and  _212
REMARK   75  A    between atoms: _212  and  _213
REMARK   76  A    between atoms: _216  and  _218
REMARK   77  A    between atoms: _218  and  _219
REMARK   78  A    between atoms: _218  and  _221
REMARK   79  A    between atoms: _224  and  _226
REMARK   80  A    between atoms: _226  and  _227
REMARK   81  A    between atoms: _226  and  _229
REMARK   82  A    between atoms: _229  and  _230
REMARK   83  A    between atoms: _235  and  _237
REMARK   84  A    between atoms: _237  and  _238
REMARK   85  A    between atoms: _237  and  _240
REMARK   86  A    between atoms: _240  and  _241
REMARK   87  A    between atoms: _251  and  _253
REMARK   88  A    between atoms: _253  and  _254
REMARK   89  A    between atoms: _253  and  _256
REMARK   90  A    between atoms: _256  and  _257
REMARK   91  A    between atoms: _263  and  _265
REMARK   92  A    between atoms: _265  and  _266
REMARK   93  A    between atoms: _268  and  _270
REMARK   94  A    between atoms: _270  and  _271
REMARK   95  A    between atoms: _270  and  _273
REMARK   96  A    between atoms: _276  and  _278
REMARK   97  A    between atoms: _278  and  _279
REMARK   98  A    between atoms: _278  and  _281
REMARK   99  A    between atoms: _281  and  _282
REMARK  100  A    between atoms: _285  and  _287
REMARK  101  A    between atoms: _287  and  _288
REMARK  102  A    between atoms: _291  and  _293
REMARK  103  A    between atoms: _293  and  _294
REMARK  104  A    between atoms: _293  and  _296
REMARK  105  A    between atoms: _299  and  _301
REMARK  106  A    between atoms: _301  and  _302
REMARK  107  A    between atoms: _301  and  _304
REMARK  108  A    between atoms: _304  and  _305
REMARK  109  A    between atoms: _308  and  _310
REMARK  110  A    between atoms: _310  and  _311
REMARK  111  A    between atoms: _310  and  _313
REMARK  112  A    between atoms: _313  and  _314
REMARK  113  A    between atoms: _316  and  _318
REMARK  114  A    between atoms: _318  and  _319
REMARK  115  A    between atoms: _318  and  _321
REMARK  116  A    between atoms: _321  and  _322
REMARK  117  A    between atoms: _325  and  _327
REMARK  118  A    between atoms: _327  and  _328
REMARK  119  A    between atoms: _327  and  _330
REMARK  120  A    between atoms: _330  and  _331
REMARK  121  A    between atoms: _334  and  _336
REMARK  122  A    between atoms: _336  and  _337
REMARK  123  A    between atoms: _336  and  _339
REMARK  124  A    between atoms: _339  and  _340
REMARK  125  A    between atoms: _344  and  _345
REMARK  126  A    between atoms: _351  and  _352
REMARK  127  A    between atoms: _357  and  _359
REMARK  128  A    between atoms: _359  and  _360
REMARK  129  A    between atoms: _359  and  _362
REMARK  130  A    between atoms: _362  and  _363
REMARK  131  A    between atoms: _366  and  _368
REMARK  132  A    between atoms: _368  and  _369
REMARK  133  A    between atoms: _368  and  _371
REMARK  134  A    between atoms: _371  and  _372
REMARK  135  A    between atoms: _375  and  _377
REMARK  136  A    between atoms: _377  and  _378
REMARK  137  A    between atoms: _377  and  _380
REMARK  138  A    between atoms: _382  and  _384
REMARK  139  A    between atoms: _384  and  _385
REMARK  140  A    between atoms: _384  and  _387
REMARK  141  A    between atoms: _390  and  _392
REMARK  142  A    between atoms: _392  and  _393
REMARK  143  A    between atoms: _392  and  _395
REMARK  144  A    between atoms: _395  and  _396
REMARK  145  A    between atoms: _406  and  _408
REMARK  146  A    between atoms: _408  and  _409
REMARK  147  A    between atoms: _408  and  _411
REMARK  148  A    between atoms: _411  and  _412
REMARK  149  A    between atoms: _417  and  _419
REMARK  150  A    between atoms: _419  and  _420
REMARK  151  A    between atoms: _419  and  _422
REMARK  152  A    between atoms: _422  and  _423
REMARK  153  A    between atoms: _423  and  _424
REMARK  154  A    between atoms: _424  and  _425
REMARK                            x       y       z     vdW  Elec       q    Type
REMARK                         _______ _______ _______ _____ _____    ______ ____
ROOT
ATOM      1  C   ALA A   2      13.988  26.669  25.191  0.00  0.00    +0.241 C 
ATOM      2  O   ALA A   2      13.542  27.641  24.587  0.00  0.00    -0.273 OA
ATOM      3  N   VAL A   3      14.438  25.584  24.572  0.00  0.00    -0.297 N 
ATOM      4  H   VAL A   3      14.863  24.809  25.120  0.00  0.00    +0.150 HD
ENDROOT
BRANCH   1   5
ATOM      5  CA  ALA A   2      14.096  26.693  26.704  0.00  0.00    +0.149 C 
ATOM      6  CB  ALA A   2      12.720  26.834  27.328  0.00  0.00    +0.031 C 
BRANCH   5   9
ATOM      7  C   LEU A   1      15.870  27.815  27.919  0.00  0.00    +0.238 C 
ATOM      8  O   LEU A   1      16.100  26.831  28.616  0.00  0.00    -0.274 OA
ATOM      9  N   ALA A   2      14.915  27.848  27.002  0.00  0.00    -0.297 N 
ATOM     10  H   ALA A   2      14.749  28.732  26.480  0.00  0.00    +0.150 HD
BRANCH   7  11
ATOM     11  CA  LEU A   1      16.669  29.100  28.061  0.00  0.00    +0.145 C 
BRANCH  11  12
ATOM     12  N   LEU A   1      17.359  29.232  29.337  0.00  0.00    -0.238 NA
ATOM     13  H   LEU A   1      18.024  28.492  29.639  0.00  0.00    +0.142 HD
ENDBRANCH  11  12
BRANCH  11  14
ATOM     14  CB  LEU A   1      17.681  29.168  26.910  0.00  0.00    +0.026 C 
BRANCH  14  15
ATOM     15  CG  LEU A   1      18.633  30.362  26.786  0.00  0.00    +0.002 C 
ATOM     16  CD2 LEU A   1      17.855  31.641  26.600  0.00  0.00    +0.000 C 
ATOM     17  CD1 LEU A   1      19.562  30.140  25.604  0.00  0.00    +0.000 C 
ENDBRANCH  14  15
ENDBRANCH  11  14
ENDBRANCH   7  11
ENDBRANCH   5   9
ENDBRANCH   1   5
BRANCH   3  18
ATOM     18  CA  VAL A   3      14.335  25.482  23.127  0.00  0.00    +0.149 C 
BRANCH  18  19
ATOM     19  C   VAL A   3      13.371  24.364  22.782  0.00  0.00    +0.241 C 
ATOM     20  O   VAL A   3      13.483  23.240  23.281  0.00  0.00    -0.273 OA
ATOM     21  N   LEU A   4      12.395  24.694  21.950  0.00  0.00    -0.298 N 
ATOM     22  H   LEU A   4      12.331  25.673  21.604  0.00  0.00    +0.150 HD
BRANCH  21  23
ATOM     23  CA  LEU A   4      11.415  23.722  21.512  0.00  0.00    +0.137 C 
BRANCH  23  24
ATOM     24  C   LEU A   4      11.959  23.186  20.199  0.00  0.00    +0.227 C 
ATOM     25  O   LEU A   4      12.185  23.952  19.267  0.00  0.00    -0.286 OA
ENDBRANCH  23  24
BRANCH  23  26
ATOM     26  CB  LEU A   4      10.068  24.406  21.285  0.00  0.00    +0.028 C 
BRANCH  26  27
ATOM     27  CG  LEU A   4       8.879  23.535  20.891  0.00  0.00    +0.002 C 
ATOM     28  CD2 LEU A   4       8.638  22.485  21.960  0.00  0.00    +0.000 C 
ATOM     29  CD1 LEU A   4       7.646  24.418  20.714  0.00  0.00    +0.000 C 
ENDBRANCH  26  27
ENDBRANCH  23  26
ENDBRANCH  21  23
ENDBRANCH  18  19
BRANCH  18  30
ATOM     30  CB  VAL A   3      15.695  25.200  22.450  0.00  0.00    +0.027 C 
ATOM     31  CG2 VAL A   3      16.693  26.294  22.801  0.00  0.00    +0.002 C 
ATOM     32  CG1 VAL A   3      15.508  25.132  20.930  0.00  0.00    +0.002 C 
ENDBRANCH  18  30
ENDBRANCH   3  18
TORSDOF 13
REMARK  Name = ../refined-set-2016/1ttm/1ttm_pocket.pdb
REMARK  154 active torsions:
REMARK  status: ('A' for Active; 'I' for Inactive)
REMARK    1  A    between atoms: _1  and  _3
REMARK    2  A    between atoms: _3  and  _4
REMARK    3  A    between atoms: _3  and  _6
REMARK    4  A    between atoms: _6  and  _7
REMARK    5  A    between atoms: _17  and  _19
REMARK    6  A    between atoms: _19  and  _20
REMARK    7  A    between atoms: _19  and  _22
REMARK    8  A    between atoms: _22  and  _23
REMARK    9  A    between atoms: _28  and  _29
REMARK   10  A    between atoms: _31  and  _33
REMARK   11  A    between atoms: _33  and  _34
REMARK   12  A    between atoms: _33  and  _36
REMARK   13  A    between atoms: _36  and  _37
REMARK   14  A    between atoms: _40  and  _41
REMARK   15  A    between atoms: _46  and  _48
REMARK   16  A    between atoms: _48  and  _49
REMARK   17  A    between atoms: _48  and  _51
REMARK   18  A    between atoms: _51  and  _52
REMARK   19  A    between atoms: _57  and  _59
REMARK   20  A    between atoms: _59  and  _60
REMARK   21  A    between atoms: _59  and  _62
REMARK   22  A    between atoms: _62  and  _63
REMARK   23  A    between atoms: _68  and  _70
REMARK   24  A    between atoms: _70  and  _71
REMARK   25  A    between atoms: _70  and  _73
REMARK   26  A    between atoms: _73  and  _74
REMARK   27  A    between atoms: _79  and  _81
REMARK   28  A    between atoms: _81  and  _82
REMARK   29  A    between atoms: _81  and  _84
REMARK   30  A    between atoms: _84  and  _85
REMARK   31  A    between atoms: _85  and  _86
REMARK   32  A    between atoms: _89  and  _91
REMARK   33  A    between atoms: _91  and  _92
REMARK   34  A    between atoms: _91  and  _94
REMARK   35  A    between atoms: _94  and  _95
REMARK   36  A    between atoms: _98  and  _100
REMARK   37  A    between atoms: _100  and  _101
REMARK   38  A    between atoms: _100  and  _103
REMARK   39  A    between atoms: _103  and  _104
REMARK   40  A    between atoms: _104  and  _105
REMARK   41  A    between atoms: _110  and  _112
REMARK   42  A    between atoms: _112  and  _113
REMARK   43  A    between atoms: _112  and  _115
REMARK   44  A    between atoms: _115  and  _116
REMARK   45  A    between atoms: _122  and  _124
REMARK   46  A    between atoms: _135  and  _138
REMARK   47  A    between atoms: _138  and  _139
REMARK   48  A    between atoms: _147  and  _148
REMARK   49  A    between atoms: _156  and  _158
REMARK   50  A    between atoms: _158  and  _159
REMARK   51  A    between atoms: _158  and  _161
REMARK   52  A    between atoms: _161  and  _162
REMARK   53  A    between atoms: _162  and  _163
REMARK   54  A    between atoms: _166  and  _168
REMARK   55  A    between atoms: _168  and  _169
REMARK   56  A    between atoms: _168  and  _171
REMARK   57  A    between atoms: _171  and  _172
REMARK   58  A    between atoms: _177  and  _179
REMARK   59  A    between atoms: _179  and  _180
REMARK   60  A    between atoms: _179  and  _182
REMARK   61  A    between atoms: _182  and  _183
REMARK   62  A    between atoms: _183  and  _184
REMARK   63  A    between atoms: _187  and  _189
REMARK   64  A    between atoms: _189  and  _190
REMARK   65  A    between atoms: _189  and  _192
REMARK   66  A    between atoms: _192  and  _193
REMARK   67  A    between atoms: _196  and  _198
REMARK   68  A    between atoms: _198  and  _199
REMARK   69  A    between atoms: _198  and  _201
REMARK   70  A    between atoms: _201  and  _202
REMARK   71  A    between atoms: _203  and  ZN_434
REMARK   72  A    between atoms: _207  and  _209
REMARK   73  A    between atoms: _209  and  _210
REMARK   74  A    between atoms: _209  and  _212
REMARK   75  A    between atoms: _212  and  _213
REMARK   76  A    between atoms: _216  and  _218
REMARK   77  A    between atoms: _218  and  _219
REMARK   78  A    between atoms: _218  and  _221
REMARK   79  A    between atoms: _224  and  _226
REMARK   80  A    between atoms: _226  and  _227
REMARK   81  A    between atoms: _226  and  _229
REMARK   82  A    between atoms: _229  and  _230
REMARK   83  A    between atoms: _235  and  _237
REMARK   84  A    between atoms: _237  and  _238
REMARK   85  A    between atoms: _237  and  _240
REMARK   86  A    between atoms: _240  and  _241
REMARK   87  A    between atoms: _251  and  _253
REMARK   88  A    between atoms: _253  and  _254
REMARK   89  A    between atoms: _253  and  _256
REMARK   90  A    between atoms: _256  and  _257
REMARK   91  A    between atoms: _263  and  _265
REMARK   92  A    between atoms: _265  and  _266
REMARK   93  A    between atoms: _268  and  _270
REMARK   94  A    between atoms: _270  and  _271
REMARK   95  A    between atoms: _270  and  _273
REMARK   96  A    between atoms: _276  and  _278
REMARK   97  A    between atoms: _278  and  _279
REMARK   98  A    between atoms: _278  and  _281
REMARK   99  A    between atoms: _281  and  _282
REMARK  100  A    between atoms: _285  and  _287
REMARK  101  A    between atoms: _287  and  _288
REMARK  102  A    between atoms: _291  and  _293
REMARK  103  A    between atoms: _293  and  _294
REMARK  104  A    between atoms: _293  and  _296
REMARK  105  A    between atoms: _299  and  _301
REMARK  106  A    between atoms: _301  and  _302
REMARK  107  A    between atoms: _301  and  _304
REMARK  108  A    between atoms: _304  and  _305
REMARK  109  A    between atoms: _308  and  _310
REMARK  110  A    between atoms: _310  and  _311
REMARK  111  A    between atoms: _310  and  _313
REMARK  112  A    between atoms: _313  and  _314
REMARK  113  A    between atoms: _316  and  _318
REMARK  114  A    between atoms: _318  and  _319
REMARK  115  A    between atoms: _318  and  _321
REMARK  116  A    between atoms: _321  and  _322
REMARK  117  A    between atoms: _325  and  _327
REMARK  118  A    between atoms: _327  and  _328
REMARK  119  A    between atoms: _327  and  _330
REMARK  120  A    between atoms: _330  and  _331
REMARK  121  A    between atoms: _334  and  _336
REMARK  122  A    between atoms: _336  and  _337
REMARK  123  A    between atoms: _336  and  _339
REMARK  124  A    between atoms: _339  and  _340
REMARK  125  A    between atoms: _344  and  _345
REMARK  126  A    between atoms: _351  and  _352
REMARK  127  A    between atoms: _357  and  _359
REMARK  128  A    between atoms: _359  and  _360
REMARK  129  A    between atoms: _359  and  _362
REMARK  130  A    between atoms: _362  and  _363
REMARK  131  A    between atoms: _366  and  _368
REMARK  132  A    between atoms: _368  and  _369
REMARK  133  A    between atoms: _368  and  _371
REMARK  134  A    between atoms: _371  and  _372
REMARK  135  A    between atoms: _375  and  _377
REMARK  136  A    between atoms: _377  and  _378
REMARK  137  A    between atoms: _377  and  _380
REMARK  138  A    between atoms: _382  and  _384
REMARK  139  A    between atoms: _384  and  _385
REMARK  140  A    between atoms: _384  and  _387
REMARK  141  A    between atoms: _390  and  _392
REMARK  142  A    between atoms: _392  and  _393
REMARK  143  A    between atoms: _392  and  _395
REMARK  144  A    between atoms: _395  and  _396
REMARK  145  A    between atoms: _406  and  _408
REMARK  146  A    between atoms: _408  and  _409
REMARK  147  A    between atoms: _408  and  _411
REMARK  148  A    between atoms: _411  and  _412
REMARK  149  A    between atoms: _417  and  _419
REMARK  150  A    between atoms: _419  and  _420
REMARK  151  A    between atoms: _419  and  _422
REMARK  152  A    between atoms: _422  and  _423
REMARK  153  A    between atoms: _423  and  _424
REMARK  154  A    between atoms: _424  and  _425
REMARK                            x       y       z     vdW  Elec       q    Type
REMARK                         _______ _______ _______ _____ _____    ______ ____
ROOT
ATOM      1  C   THR A   4      27.338  26.936  19.465  0.00  0.00    +0.246 C 
ATOM      2  O   THR A   4      26.839  27.113  20.575  0.00  0.00    -0.273 OA
ATOM      3  N   PRO A   5      28.558  27.390  19.157  0.00  0.00    -0.272 N 
ATOM      4  CA  PRO A   5      29.302  28.168  20.150  0.00  0.00    +0.152 C 
ATOM      5  CB  PRO A   5      30.533  28.615  19.373  0.00  0.00    +0.031 C 
ATOM      6  CG  PRO A   5      30.769  27.458  18.455  0.00  0.00    +0.024 C 
ATOM      7  CD  PRO A   5      29.382  27.123  17.966  0.00  0.00    +0.094 C 
ENDROOT
BRANCH   4   8
ATOM      8  C   PRO A   5      28.407  29.341  20.548  0.00  0.00    +0.244 C 
ATOM      9  N   PRO A   6      28.520  29.829  21.796  0.00  0.00    -0.272 N 
ATOM     10  CA  PRO A   6      29.395  29.409  22.898  0.00  0.00    +0.152 C 
ATOM     11  CB  PRO A   6      29.338  30.604  23.846  0.00  0.00    +0.031 C 
ATOM     12  CG  PRO A   6      27.931  31.066  23.689  0.00  0.00    +0.024 C 
ATOM     13  CD  PRO A   6      27.740  31.017  22.183  0.00  0.00    +0.094 C 
ATOM     14  O   PRO A   5      27.646  29.846  19.716  0.00  0.00    -0.273 OA
BRANCH  10  15
ATOM     15  C   PRO A   6      29.088  28.085  23.605  0.00  0.00    +0.241 C 
ATOM     16  O   PRO A   6      29.777  27.720  24.560  0.00  0.00    -0.273 OA
ATOM     17  N   LEU A   7      28.056  27.377  23.157  0.00  0.00    -0.297 N 
ATOM     18  H   LEU A   7      27.482  27.757  22.377  0.00  0.00    +0.150 HD
BRANCH  17  19
ATOM     19  CA  LEU A   7      27.705  26.077  23.732  0.00  0.00    +0.149 C 
BRANCH  19  20
ATOM     20  C   LEU A   7      27.390  26.098  25.229  0.00  0.00    +0.241 C 
ATOM     21  O   LEU A   7      27.642  25.120  25.938  0.00  0.00    -0.273 OA
ATOM     22  N   LEU A   8      26.825  27.200  25.711  0.00  0.00    -0.298 N 
ATOM     23  H   LEU A   8      26.615  27.990  25.068  0.00  0.00    +0.150 HD
BRANCH  22  24
ATOM     24  CA  LEU A   8      26.494  27.320  27.129  0.00  0.00    +0.137 C 
BRANCH  24  25
ATOM     25  C   LEU A   8      25.455  26.278  27.555  0.00  0.00    +0.227 C 
ATOM     26  O   LEU A   8      24.494  26.017  26.830  0.00  0.00    -0.286 OA
ENDBRANCH  24  25
BRANCH  24  27
ATOM     27  CB  LEU A   8      25.982  28.732  27.421  0.00  0.00    +0.028 C 
BRANCH  27  28
ATOM     28  CG  LEU A   8      26.983  29.855  27.125  0.00  0.00    +0.002 C 
ATOM     29  CD2 LEU A   8      28.207  29.703  28.019  0.00  0.00    +0.000 C 
ATOM     30  CD1 LEU A   8      26.319  31.207  27.345  0.00  0.00    +0.000 C 
ENDBRANCH  27  28
ENDBRANCH  24  27
ENDBRANCH  22  24
ENDBRANCH  19  20
BRANCH  19  31
ATOM     31  CB  LEU A   7      28.846  25.082  23.468  0.00  0.00    +0.029 C 
BRANCH  31  32
ATOM     32  CG  LEU A   7      29.297  24.912  22.010  0.00  0.00    +0.002 C 
ATOM     33  CD2 LEU A   7      30.608  24.136  21.967  0.00  0.00    +0.000 C 
ATOM     34  CD1 LEU A   7      28.229  24.192  21.210  0.00  0.00    +0.000 C 
ENDBRANCH  31  32
ENDBRANCH  19  31
ENDBRANCH  17  19
ENDBRANCH  10  15
ENDBRANCH   4   8
BRANCH   1  35
ATOM     35  CA  THR A   4      26.591  26.145  18.401  0.00  0.00    +0.176 C 
BRANCH  35  37
ATOM     36  C   THR A   3      25.371  24.130  18.970  0.00  0.00    +0.243 C 
ATOM     37  N   THR A   4      25.551  25.436  19.134  0.00  0.00    -0.295 N 
ATOM     38  H   THR A   4      24.941  25.959  19.794  0.00  0.00    +0.150 HD
ATOM     39  O   THR A   3      26.001  23.473  18.141  0.00  0.00    -0.273 OA
BRANCH  36  40
ATOM     40  CA  THR A   3      24.319  23.467  19.850  0.00  0.00    +0.176 C 
BRANCH  40  43
ATOM     41  C   LEU A   2      23.987  24.520  22.013  0.00  0.00    +0.241 C 
ATOM     42  O   LEU A   2      24.931  23.888  22.501  0.00  0.00    -0.273 OA
ATOM     43  N   THR A   3      23.617  24.386  20.741  0.00  0.00    -0.295 N 
ATOM     44  H   THR A   3      22.818  24.943  20.378  0.00  0.00    +0.150 HD
BRANCH  41  45
ATOM     45  CA  LEU A   2      23.186  25.485  22.893  0.00  0.00    +0.149 C 
BRANCH  45  47
ATOM     46  C   SER A   1      22.753  23.764  24.553  0.00  0.00    +0.241 C 
ATOM     47  N   LEU A   2      23.361  24.895  24.210  0.00  0.00    -0.297 N 
ATOM     48  H   LEU A   2      23.977  25.369  24.901  0.00  0.00    +0.150 HD
ATOM     49  O   SER A   1      21.971  23.169  23.820  0.00  0.00    -0.274 OA
BRANCH  46  50
ATOM     50  CA  SER A   1      23.120  23.229  25.923  0.00  0.00    +0.174 C 
BRANCH  50  51
ATOM     51  N   SER A   1      22.411  22.008  26.278  0.00  0.00    -0.236 NA
ATOM     52  H   SER A   1      22.275  21.276  25.552  0.00  0.00    +0.142 HD
ENDBRANCH  50  51
BRANCH  50  53
ATOM     53  CB  SER A   1      24.622  22.949  25.892  0.00  0.00    +0.163 C 
BRANCH  53  54
ATOM     54  OG  SER A   1      24.925  22.096  24.789  0.00  0.00    -0.380 OA
ATOM     55  H   SER A   1      24.654  22.539  23.946  0.00  0.00    +0.211 HD
ENDBRANCH  53  54
ENDBRANCH  50  53
ENDBRANCH  46  50
ENDBRANCH  45  47
BRANCH  45  56
ATOM     56  CB  LEU A   2      23.811  26.881  22.848  0.00  0.00    +0.029 C 
BRANCH  56  57
ATOM     57  CG  LEU A   2      23.184  27.960  23.740  0.00  0.00    +0.002 C 
ATOM     58  CD2 LEU A   2      23.998  29.236  23.635  0.00  0.00    +0.000 C 
ATOM     59  CD1 LEU A   2      21.748  28.218  23.315  0.00  0.00    +0.000 C 
ENDBRANCH  56  57
ENDBRANCH  45  56
ENDBRANCH  41  45
ENDBRANCH  40  43
BRANCH  40  60
ATOM     60  CB  THR A   3      23.333  22.676  18.964  0.00  0.00    +0.137 C 
ATOM     61  CG2 THR A   3      22.332  21.921  19.841  0.00  0.00    +0.034 C 
BRANCH  60  62
ATOM     62  OG1 THR A   3      22.627  23.573  18.099  0.00  0.00    -0.382 OA
ATOM     63  HG1 THR A   3      21.997  23.058  17.535  0.00  0.00    +0.210 HD
ENDBRANCH  60  62
ENDBRANCH  40  60
ENDBRANCH  36  40
ENDBRANCH  35  37
BRANCH  35  64
ATOM     64  CB  THR A   4      26.048  27.163  17.365  0.00  0.00    +0.137 C 
ATOM     65  CG2 THR A   4      24.879  26.576  16.579  0.00  0.00    +0.034 C 
BRANCH  64  66
ATOM     66  OG1 THR A   4      25.629  28.357  18.039  0.00  0.00    -0.382 OA
ATOM     67  HG1 THR A   4      25.283  29.005  17.375  0.00  0.00    +0.210 HD
ENDBRANCH  64  66
ENDBRANCH  35  64
ENDBRANCH   1  35
TORSDOF 26
REMARK  Name = ../refined-set-2016/1ttm/1ttm_pocket.pdb
REMARK  154 active torsions:
REMARK  status: ('A' for Active; 'I' for Inactive)
REMARK    1  A    between atoms: _1  and  _3
REMARK    2  A    between atoms: _3  and  _4
REMARK    3  A    between atoms: _3  and  _6
REMARK    4  A    between atoms: _6  and  _7
REMARK    5  A    between atoms: _17  and  _19
REMARK    6  A    between atoms: _19  and  _20
REMARK    7  A    between atoms: _19  and  _22
REMARK    8  A    between atoms: _22  and  _23
REMARK    9  A    between atoms: _28  and  _29
REMARK   10  A    between atoms: _31  and  _33
REMARK   11  A    between atoms: _33  and  _34
REMARK   12  A    between atoms: _33  and  _36
REMARK   13  A    between atoms: _36  and  _37
REMARK   14  A    between atoms: _40  and  _41
REMARK   15  A    between atoms: _46  and  _48
REMARK   16  A    between atoms: _48  and  _49
REMARK   17  A    between atoms: _48  and  _51
REMARK   18  A    between atoms: _51  and  _52
REMARK   19  A    between atoms: _57  and  _59
REMARK   20  A    between atoms: _59  and  _60
REMARK   21  A    between atoms: _59  and  _62
REMARK   22  A    between atoms: _62  and  _63
REMARK   23  A    between atoms: _68  and  _70
REMARK   24  A    between atoms: _70  and  _71
REMARK   25  A    between atoms: _70  and  _73
REMARK   26  A    between atoms: _73  and  _74
REMARK   27  A    between atoms: _79  and  _81
REMARK   28  A    between atoms: _81  and  _82
REMARK   29  A    between atoms: _81  and  _84
REMARK   30  A    between atoms: _84  and  _85
REMARK   31  A    between atoms: _85  and  _86
REMARK   32  A    between atoms: _89  and  _91
REMARK   33  A    between atoms: _91  and  _92
REMARK   34  A    between atoms: _91  and  _94
REMARK   35  A    between atoms: _94  and  _95
REMARK   36  A    between atoms: _98  and  _100
REMARK   37  A    between atoms: _100  and  _101
REMARK   38  A    between atoms: _100  and  _103
REMARK   39  A    between atoms: _103  and  _104
REMARK   40  A    between atoms: _104  and  _105
REMARK   41  A    between atoms: _110  and  _112
REMARK   42  A    between atoms: _112  and  _113
REMARK   43  A    between atoms: _112  and  _115
REMARK   44  A    between atoms: _115  and  _116
REMARK   45  A    between atoms: _122  and  _124
REMARK   46  A    between atoms: _135  and  _138
REMARK   47  A    between atoms: _138  and  _139
REMARK   48  A    between atoms: _147  and  _148
REMARK   49  A    between atoms: _156  and  _158
REMARK   50  A    between atoms: _158  and  _159
REMARK   51  A    between atoms: _158  and  _161
REMARK   52  A    between atoms: _161  and  _162
REMARK   53  A    between atoms: _162  and  _163
REMARK   54  A    between atoms: _166  and  _168
REMARK   55  A    between atoms: _168  and  _169
REMARK   56  A    between atoms: _168  and  _171
REMARK   57  A    between atoms: _171  and  _172
REMARK   58  A    between atoms: _177  and  _179
REMARK   59  A    between atoms: _179  and  _180
REMARK   60  A    between atoms: _179  and  _182
REMARK   61  A    between atoms: _182  and  _183
REMARK   62  A    between atoms: _183  and  _184
REMARK   63  A    between atoms: _187  and  _189
REMARK   64  A    between atoms: _189  and  _190
REMARK   65  A    between atoms: _189  and  _192
REMARK   66  A    between atoms: _192  and  _193
REMARK   67  A    between atoms: _196  and  _198
REMARK   68  A    between atoms: _198  and  _199
REMARK   69  A    between atoms: _198  and  _201
REMARK   70  A    between atoms: _201  and  _202
REMARK   71  A    between atoms: _203  and  ZN_434
REMARK   72  A    between atoms: _207  and  _209
REMARK   73  A    between atoms: _209  and  _210
REMARK   74  A    between atoms: _209  and  _212
REMARK   75  A    between atoms: _212  and  _213
REMARK   76  A    between atoms: _216  and  _218
REMARK   77  A    between atoms: _218  and  _219
REMARK   78  A    between atoms: _218  and  _221
REMARK   79  A    between atoms: _224  and  _226
REMARK   80  A    between atoms: _226  and  _227
REMARK   81  A    between atoms: _226  and  _229
REMARK   82  A    between atoms: _229  and  _230
REMARK   83  A    between atoms: _235  and  _237
REMARK   84  A    between atoms: _237  and  _238
REMARK   85  A    between atoms: _237  and  _240
REMARK   86  A    between atoms: _240  and  _241
REMARK   87  A    between atoms: _251  and  _253
REMARK   88  A    between atoms: _253  and  _254
REMARK   89  A    between atoms: _253  and  _256
REMARK   90  A    between atoms: _256  and  _257
REMARK   91  A    between atoms: _263  and  _265
REMARK   92  A    between atoms: _265  and  _266
REMARK   93  A    between atoms: _268  and  _270
REMARK   94  A    between atoms: _270  and  _271
REMARK   95  A    between atoms: _270  and  _273
REMARK   96  A    between atoms: _276  and  _278
REMARK   97  A    between atoms: _278  and  _279
REMARK   98  A    between atoms: _278  and  _281
REMARK   99  A    between atoms: _281  and  _282
REMARK  100  A    between atoms: _285  and  _287
REMARK  101  A    between atoms: _287  and  _288
REMARK  102  A    between atoms: _291  and  _293
REMARK  103  A    between atoms: _293  and  _294
REMARK  104  A    between atoms: _293  and  _296
REMARK  105  A    between atoms: _299  and  _301
REMARK  106  A    between atoms: _301  and  _302
REMARK  107  A    between atoms: _301  and  _304
REMARK  108  A    between atoms: _304  and  _305
REMARK  109  A    between atoms: _308  and  _310
REMARK  110  A    between atoms: _310  and  _311
REMARK  111  A    between atoms: _310  and  _313
REMARK  112  A    between atoms: _313  and  _314
REMARK  113  A    between atoms: _316  and  _318
REMARK  114  A    between atoms: _318  and  _319
REMARK  115  A    between atoms: _318  and  _321
REMARK  116  A    between atoms: _321  and  _322
REMARK  117  A    between atoms: _325  and  _327
REMARK  118  A    between atoms: _327  and  _328
REMARK  119  A    between atoms: _327  and  _330
REMARK  120  A    between atoms: _330  and  _331
REMARK  121  A    between atoms: _334  and  _336
REMARK  122  A    between atoms: _336  and  _337
REMARK  123  A    between atoms: _336  and  _339
REMARK  124  A    between atoms: _339  and  _340
REMARK  125  A    between atoms: _344  and  _345
REMARK  126  A    between atoms: _351  and  _352
REMARK  127  A    between atoms: _357  and  _359
REMARK  128  A    between atoms: _359  and  _360
REMARK  129  A    between atoms: _359  and  _362
REMARK  130  A    between atoms: _362  and  _363
REMARK  131  A    between atoms: _366  and  _368
REMARK  132  A    between atoms: _368  and  _369
REMARK  133  A    between atoms: _368  and  _371
REMARK  134  A    between atoms: _371  and  _372
REMARK  135  A    between atoms: _375  and  _377
REMARK  136  A    between atoms: _377  and  _378
REMARK  137  A    between atoms: _377  and  _380
REMARK  138  A    between atoms: _382  and  _384
REMARK  139  A    between atoms: _384  and  _385
REMARK  140  A    between atoms: _384  and  _387
REMARK  141  A    between atoms: _390  and  _392
REMARK  142  A    between atoms: _392  and  _393
REMARK  143  A    between atoms: _392  and  _395
REMARK  144  A    between atoms: _395  and  _396
REMARK  145  A    between atoms: _406  and  _408
REMARK  146  A    between atoms: _408  and  _409
REMARK  147  A    between atoms: _408  and  _411
REMARK  148  A    between atoms: _411  and  _412
REMARK  149  A    between atoms: _417  and  _419
REMARK  150  A    between atoms: _419  and  _420
REMARK  151  A    between atoms: _419  and  _422
REMARK  152  A    between atoms: _422  and  _423
REMARK  153  A    between atoms: _423  and  _424
REMARK  154  A    between atoms: _424  and  _425
REMARK                            x       y       z     vdW  Elec       q    Type
REMARK                         _______ _______ _______ _____ _____    ______ ____
ROOT
ATOM      1  C   CYS A   1      20.329  26.521  29.330  0.00  0.00    +0.239 C 
ATOM      2  O   CYS A   1      19.396  27.311  29.455  0.00  0.00    -0.274 OA
ATOM      3  N   VAL A   2      20.205  25.367  28.689  0.00  0.00    -0.298 N 
ATOM      4  H   VAL A   2      21.002  24.699  28.670  0.00  0.00    +0.150 HD
ENDROOT
BRANCH   1   5
ATOM      5  CA  CYS A   1      21.693  26.837  29.940  0.00  0.00    +0.156 C 
BRANCH   5   6
ATOM      6  N   CYS A   1      22.778  26.068  29.337  0.00  0.00    -0.237 NA
ATOM      7  H   CYS A   1      22.889  26.093  28.303  0.00  0.00    +0.142 HD
ENDBRANCH   5   6
BRANCH   5   8
ATOM      8  CB  CYS A   1      21.986  28.324  29.720  0.00  0.00    +0.095 C 
ATOM      9  SG  CYS A   1      22.091  28.782  27.952  0.00  0.00    -0.080 S 
ENDBRANCH   5   8
ENDBRANCH   1   5
BRANCH   3  10
ATOM     10  CA  VAL A   2      18.966  25.028  28.013  0.00  0.00    +0.137 C 
BRANCH  10  11
ATOM     11  CB  VAL A   2      19.231  24.764  26.505  0.00  0.00    +0.026 C 
ATOM     12  CG2 VAL A   2      20.057  25.896  25.913  0.00  0.00    +0.002 C 
ATOM     13  CG1 VAL A   2      17.906  24.576  25.761  0.00  0.00    +0.002 C 
ENDBRANCH  10  11
BRANCH  10  14
ATOM     14  C   VAL A   2      18.188  23.830  28.517  0.00  0.00    +0.227 C 
ATOM     15  O   VAL A   2      18.748  22.764  28.767  0.00  0.00    -0.286 OA
ENDBRANCH  10  14
ENDBRANCH   3  10
TORSDOF 6
REMARK  Name = ../refined-set-2016/1ttm/1ttm_pocket.pdb
REMARK  154 active torsions:
REMARK  status: ('A' for Active; 'I' for Inactive)
REMARK    1  A    between atoms: _1  and  _3
REMARK    2  A    between atoms: _3  and  _4
REMARK    3  A    between atoms: _3  and  _6
REMARK    4  A    between atoms: _6  and  _7
REMARK    5  A    between atoms: _17  and  _19
REMARK    6  A    between atoms: _19  and  _20
REMARK    7  A    between atoms: _19  and  _22
REMARK    8  A    between atoms: _22  and  _23
REMARK    9  A    between atoms: _28  and  _29
REMARK   10  A    between atoms: _31  and  _33
REMARK   11  A    between atoms: _33  and  _34
REMARK   12  A    between atoms: _33  and  _36
REMARK   13  A    between atoms: _36  and  _37
REMARK   14  A    between atoms: _40  and  _41
REMARK   15  A    between atoms: _46  and  _48
REMARK   16  A    between atoms: _48  and  _49
REMARK   17  A    between atoms: _48  and  _51
REMARK   18  A    between atoms: _51  and  _52
REMARK   19  A    between atoms: _57  and  _59
REMARK   20  A    between atoms: _59  and  _60
REMARK   21  A    between atoms: _59  and  _62
REMARK   22  A    between atoms: _62  and  _63
REMARK   23  A    between atoms: _68  and  _70
REMARK   24  A    between atoms: _70  and  _71
REMARK   25  A    between atoms: _70  and  _73
REMARK   26  A    between atoms: _73  and  _74
REMARK   27  A    between atoms: _79  and  _81
REMARK   28  A    between atoms: _81  and  _82
REMARK   29  A    between atoms: _81  and  _84
REMARK   30  A    between atoms: _84  and  _85
REMARK   31  A    between atoms: _85  and  _86
REMARK   32  A    between atoms: _89  and  _91
REMARK   33  A    between atoms: _91  and  _92
REMARK   34  A    between atoms: _91  and  _94
REMARK   35  A    between atoms: _94  and  _95
REMARK   36  A    between atoms: _98  and  _100
REMARK   37  A    between atoms: _100  and  _101
REMARK   38  A    between atoms: _100  and  _103
REMARK   39  A    between atoms: _103  and  _104
REMARK   40  A    between atoms: _104  and  _105
REMARK   41  A    between atoms: _110  and  _112
REMARK   42  A    between atoms: _112  and  _113
REMARK   43  A    between atoms: _112  and  _115
REMARK   44  A    between atoms: _115  and  _116
REMARK   45  A    between atoms: _122  and  _124
REMARK   46  A    between atoms: _135  and  _138
REMARK   47  A    between atoms: _138  and  _139
REMARK   48  A    between atoms: _147  and  _148
REMARK   49  A    between atoms: _156  and  _158
REMARK   50  A    between atoms: _158  and  _159
REMARK   51  A    between atoms: _158  and  _161
REMARK   52  A    between atoms: _161  and  _162
REMARK   53  A    between atoms: _162  and  _163
REMARK   54  A    between atoms: _166  and  _168
REMARK   55  A    between atoms: _168  and  _169
REMARK   56  A    between atoms: _168  and  _171
REMARK   57  A    between atoms: _171  and  _172
REMARK   58  A    between atoms: _177  and  _179
REMARK   59  A    between atoms: _179  and  _180
REMARK   60  A    between atoms: _179  and  _182
REMARK   61  A    between atoms: _182  and  _183
REMARK   62  A    between atoms: _183  and  _184
REMARK   63  A    between atoms: _187  and  _189
REMARK   64  A    between atoms: _189  and  _190
REMARK   65  A    between atoms: _189  and  _192
REMARK   66  A    between atoms: _192  and  _193
REMARK   67  A    between atoms: _196  and  _198
REMARK   68  A    between atoms: _198  and  _199
REMARK   69  A    between atoms: _198  and  _201
REMARK   70  A    between atoms: _201  and  _202
REMARK   71  A    between atoms: _203  and  ZN_434
REMARK   72  A    between atoms: _207  and  _209
REMARK   73  A    between atoms: _209  and  _210
REMARK   74  A    between atoms: _209  and  _212
REMARK   75  A    between atoms: _212  and  _213
REMARK   76  A    between atoms: _216  and  _218
REMARK   77  A    between atoms: _218  and  _219
REMARK   78  A    between atoms: _218  and  _221
REMARK   79  A    between atoms: _224  and  _226
REMARK   80  A    between atoms: _226  and  _227
REMARK   81  A    between atoms: _226  and  _229
REMARK   82  A    between atoms: _229  and  _230
REMARK   83  A    between atoms: _235  and  _237
REMARK   84  A    between atoms: _237  and  _238
REMARK   85  A    between atoms: _237  and  _240
REMARK   86  A    between atoms: _240  and  _241
REMARK   87  A    between atoms: _251  and  _253
REMARK   88  A    between atoms: _253  and  _254
REMARK   89  A    between atoms: _253  and  _256
REMARK   90  A    between atoms: _256  and  _257
REMARK   91  A    between atoms: _263  and  _265
REMARK   92  A    between atoms: _265  and  _266
REMARK   93  A    between atoms: _268  and  _270
REMARK   94  A    between atoms: _270  and  _271
REMARK   95  A    between atoms: _270  and  _273
REMARK   96  A    between atoms: _276  and  _278
REMARK   97  A    between atoms: _278  and  _279
REMARK   98  A    between atoms: _278  and  _281
REMARK   99  A    between atoms: _281  and  _282
REMARK  100  A    between atoms: _285  and  _287
REMARK  101  A    between atoms: _287  and  _288
REMARK  102  A    between atoms: _291  and  _293
REMARK  103  A    between atoms: _293  and  _294
REMARK  104  A    between atoms: _293  and  _296
REMARK  105  A    between atoms: _299  and  _301
REMARK  106  A    between atoms: _301  and  _302
REMARK  107  A    between atoms: _301  and  _304
REMARK  108  A    between atoms: _304  and  _305
REMARK  109  A    between atoms: _308  and  _310
REMARK  110  A    between atoms: _310  and  _311
REMARK  111  A    between atoms: _310  and  _313
REMARK  112  A    between atoms: _313  and  _314
REMARK  113  A    between atoms: _316  and  _318
REMARK  114  A    between atoms: _318  and  _319
REMARK  115  A    between atoms: _318  and  _321
REMARK  116  A    between atoms: _321  and  _322
REMARK  117  A    between atoms: _325  and  _327
REMARK  118  A    between atoms: _327  and  _328
REMARK  119  A    between atoms: _327  and  _330
REMARK  120  A    between atoms: _330  and  _331
REMARK  121  A    between atoms: _334  and  _336
REMARK  122  A    between atoms: _336  and  _337
REMARK  123  A    between atoms: _336  and  _339
REMARK  124  A    between atoms: _339  and  _340
REMARK  125  A    between atoms: _344  and  _345
REMARK  126  A    between atoms: _351  and  _352
REMARK  127  A    between atoms: _357  and  _359
REMARK  128  A    between atoms: _359  and  _360
REMARK  129  A    between atoms: _359  and  _362
REMARK  130  A    between atoms: _362  and  _363
REMARK  131  A    between atoms: _366  and  _368
REMARK  132  A    between atoms: _368  and  _369
REMARK  133  A    between atoms: _368  and  _371
REMARK  134  A    between atoms: _371  and  _372
REMARK  135  A    between atoms: _375  and  _377
REMARK  136  A    between atoms: _377  and  _378
REMARK  137  A    between atoms: _377  and  _380
REMARK  138  A    between atoms: _382  and  _384
REMARK  139  A    between atoms: _384  and  _385
REMARK  140  A    between atoms: _384  and  _387
REMARK  141  A    between atoms: _390  and  _392
REMARK  142  A    between atoms: _392  and  _393
REMARK  143  A    between atoms: _392  and  _395
REMARK  144  A    between atoms: _395  and  _396
REMARK  145  A    between atoms: _406  and  _408
REMARK  146  A    between atoms: _408  and  _409
REMARK  147  A    between atoms: _408  and  _411
REMARK  148  A    between atoms: _411  and  _412
REMARK  149  A    between atoms: _417  and  _419
REMARK  150  A    between atoms: _419  and  _420
REMARK  151  A    between atoms: _419  and  _422
REMARK  152  A    between atoms: _422  and  _423
REMARK  153  A    between atoms: _423  and  _424
REMARK  154  A    between atoms: _424  and  _425
REMARK                            x       y       z     vdW  Elec       q    Type
REMARK                         _______ _______ _______ _____ _____    ______ ____
ROOT
ATOM      1  CG  TRP A   1      17.449  20.714  24.537  0.00  0.00    -0.002 A 
ATOM      2  CD1 TRP A   1      18.668  21.006  25.082  0.00  0.00    +0.068 A 
ATOM      3  NE1 TRP A   1      19.414  21.746  24.199  0.00  0.00    -0.352 N 
ATOM      4  HE1 TRP A   1      20.378  22.097  24.368  0.00  0.00    +0.166 HD
ATOM      5  CE2 TRP A   1      18.681  21.947  23.058  0.00  0.00    +0.056 A 
ATOM      6  CZ2 TRP A   1      19.008  22.635  21.885  0.00  0.00    +0.017 A 
ATOM      7  CH2 TRP A   1      18.066  22.676  20.887  0.00  0.00    +0.001 A 
ATOM      8  CZ3 TRP A   1      16.814  22.050  21.036  0.00  0.00    +0.000 A 
ATOM      9  CE3 TRP A   1      16.488  21.366  22.206  0.00  0.00    +0.001 A 
ATOM     10  CD2 TRP A   1      17.435  21.308  23.238  0.00  0.00    +0.013 A 
ENDROOT
BRANCH   1  11
ATOM     11  CB  TRP A   1      16.326  19.981  25.187  0.00  0.00    +0.053 C 
BRANCH  11  12
ATOM     12  CA  TRP A   1      15.324  20.920  25.862  0.00  0.00    +0.137 C 
BRANCH  12  13
ATOM     13  N   TRP A   1      15.794  21.328  27.177  0.00  0.00    -0.239 NA
ATOM     14  H   TRP A   1      16.368  20.679  27.752  0.00  0.00    +0.142 HD
ENDBRANCH  12  13
BRANCH  12  15
ATOM     15  C   TRP A   1      13.958  20.262  25.882  0.00  0.00    +0.224 C 
ATOM     16  O   TRP A   1      13.661  19.433  26.744  0.00  0.00    -0.287 OA
ENDBRANCH  12  15
ENDBRANCH  11  12
ENDBRANCH   1  11
TORSDOF 4
REMARK  Name = ../refined-set-2016/1ttm/1ttm_pocket.pdb
REMARK  154 active torsions:
REMARK  status: ('A' for Active; 'I' for Inactive)
REMARK    1  A    between atoms: _1  and  _3
REMARK    2  A    between atoms: _3  and  _4
REMARK    3  A    between atoms: _3  and  _6
REMARK    4  A    between atoms: _6  and  _7
REMARK    5  A    between atoms: _17  and  _19
REMARK    6  A    between atoms: _19  and  _20
REMARK    7  A    between atoms: _19  and  _22
REMARK    8  A    between atoms: _22  and  _23
REMARK    9  A    between atoms: _28  and  _29
REMARK   10  A    between atoms: _31  and  _33
REMARK   11  A    between atoms: _33  and  _34
REMARK   12  A    between atoms: _33  and  _36
REMARK   13  A    between atoms: _36  and  _37
REMARK   14  A    between atoms: _40  and  _41
REMARK   15  A    between atoms: _46  and  _48
REMARK   16  A    between atoms: _48  and  _49
REMARK   17  A    between atoms: _48  and  _51
REMARK   18  A    between atoms: _51  and  _52
REMARK   19  A    between atoms: _57  and  _59
REMARK   20  A    between atoms: _59  and  _60
REMARK   21  A    between atoms: _59  and  _62
REMARK   22  A    between atoms: _62  and  _63
REMARK   23  A    between atoms: _68  and  _70
REMARK   24  A    between atoms: _70  and  _71
REMARK   25  A    between atoms: _70  and  _73
REMARK   26  A    between atoms: _73  and  _74
REMARK   27  A    between atoms: _79  and  _81
REMARK   28  A    between atoms: _81  and  _82
REMARK   29  A    between atoms: _81  and  _84
REMARK   30  A    between atoms: _84  and  _85
REMARK   31  A    between atoms: _85  and  _86
REMARK   32  A    between atoms: _89  and  _91
REMARK   33  A    between atoms: _91  and  _92
REMARK   34  A    between atoms: _91  and  _94
REMARK   35  A    between atoms: _94  and  _95
REMARK   36  A    between atoms: _98  and  _100
REMARK   37  A    between atoms: _100  and  _101
REMARK   38  A    between atoms: _100  and  _103
REMARK   39  A    between atoms: _103  and  _104
REMARK   40  A    between atoms: _104  and  _105
REMARK   41  A    between atoms: _110  and  _112
REMARK   42  A    between atoms: _112  and  _113
REMARK   43  A    between atoms: _112  and  _115
REMARK   44  A    between atoms: _115  and  _116
REMARK   45  A    between atoms: _122  and  _124
REMARK   46  A    between atoms: _135  and  _138
REMARK   47  A    between atoms: _138  and  _139
REMARK   48  A    between atoms: _147  and  _148
REMARK   49  A    between atoms: _156  and  _158
REMARK   50  A    between atoms: _158  and  _159
REMARK   51  A    between atoms: _158  and  _161
REMARK   52  A    between atoms: _161  and  _162
REMARK   53  A    between atoms: _162  and  _163
REMARK   54  A    between atoms: _166  and  _168
REMARK   55  A    between atoms: _168  and  _169
REMARK   56  A    between atoms: _168  and  _171
REMARK   57  A    between atoms: _171  and  _172
REMARK   58  A    between atoms: _177  and  _179
REMARK   59  A    between atoms: _179  and  _180
REMARK   60  A    between atoms: _179  and  _182
REMARK   61  A    between atoms: _182  and  _183
REMARK   62  A    between atoms: _183  and  _184
REMARK   63  A    between atoms: _187  and  _189
REMARK   64  A    between atoms: _189  and  _190
REMARK   65  A    between atoms: _189  and  _192
REMARK   66  A    between atoms: _192  and  _193
REMARK   67  A    between atoms: _196  and  _198
REMARK   68  A    between atoms: _198  and  _199
REMARK   69  A    between atoms: _198  and  _201
REMARK   70  A    between atoms: _201  and  _202
REMARK   71  A    between atoms: _203  and  ZN_434
REMARK   72  A    between atoms: _207  and  _209
REMARK   73  A    between atoms: _209  and  _210
REMARK   74  A    between atoms: _209  and  _212
REMARK   75  A    between atoms: _212  and  _213
REMARK   76  A    between atoms: _216  and  _218
REMARK   77  A    between atoms: _218  and  _219
REMARK   78  A    between atoms: _218  and  _221
REMARK   79  A    between atoms: _224  and  _226
REMARK   80  A    between atoms: _226  and  _227
REMARK   81  A    between atoms: _226  and  _229
REMARK   82  A    between atoms: _229  and  _230
REMARK   83  A    between atoms: _235  and  _237
REMARK   84  A    between atoms: _237  and  _238
REMARK   85  A    between atoms: _237  and  _240
REMARK   86  A    between atoms: _240  and  _241
REMARK   87  A    between atoms: _251  and  _253
REMARK   88  A    between atoms: _253  and  _254
REMARK   89  A    between atoms: _253  and  _256
REMARK   90  A    between atoms: _256  and  _257
REMARK   91  A    between atoms: _263  and  _265
REMARK   92  A    between atoms: _265  and  _266
REMARK   93  A    between atoms: _268  and  _270
REMARK   94  A    between atoms: _270  and  _271
REMARK   95  A    between atoms: _270  and  _273
REMARK   96  A    between atoms: _276  and  _278
REMARK   97  A    between atoms: _278  and  _279
REMARK   98  A    between atoms: _278  and  _281
REMARK   99  A    between atoms: _281  and  _282
REMARK  100  A    between atoms: _285  and  _287
REMARK  101  A    between atoms: _287  and  _288
REMARK  102  A    between atoms: _291  and  _293
REMARK  103  A    between atoms: _293  and  _294
REMARK  104  A    between atoms: _293  and  _296
REMARK  105  A    between atoms: _299  and  _301
REMARK  106  A    between atoms: _301  and  _302
REMARK  107  A    between atoms: _301  and  _304
REMARK  108  A    between atoms: _304  and  _305
REMARK  109  A    between atoms: _308  and  _310
REMARK  110  A    between atoms: _310  and  _311
REMARK  111  A    between atoms: _310  and  _313
REMARK  112  A    between atoms: _313  and  _314
REMARK  113  A    between atoms: _316  and  _318
REMARK  114  A    between atoms: _318  and  _319
REMARK  115  A    between atoms: _318  and  _321
REMARK  116  A    between atoms: _321  and  _322
REMARK  117  A    between atoms: _325  and  _327
REMARK  118  A    between atoms: _327  and  _328
REMARK  119  A    between atoms: _327  and  _330
REMARK  120  A    between atoms: _330  and  _331
REMARK  121  A    between atoms: _334  and  _336
REMARK  122  A    between atoms: _336  and  _337
REMARK  123  A    between atoms: _336  and  _339
REMARK  124  A    between atoms: _339  and  _340
REMARK  125  A    between atoms: _344  and  _345
REMARK  126  A    between atoms: _351  and  _352
REMARK  127  A    between atoms: _357  and  _359
REMARK  128  A    between atoms: _359  and  _360
REMARK  129  A    between atoms: _359  and  _362
REMARK  130  A    between atoms: _362  and  _363
REMARK  131  A    between atoms: _366  and  _368
REMARK  132  A    between atoms: _368  and  _369
REMARK  133  A    between atoms: _368  and  _371
REMARK  134  A    between atoms: _371  and  _372
REMARK  135  A    between atoms: _375  and  _377
REMARK  136  A    between atoms: _377  and  _378
REMARK  137  A    between atoms: _377  and  _380
REMARK  138  A    between atoms: _382  and  _384
REMARK  139  A    between atoms: _384  and  _385
REMARK  140  A    between atoms: _384  and  _387
REMARK  141  A    between atoms: _390  and  _392
REMARK  142  A    between atoms: _392  and  _393
REMARK  143  A    between atoms: _392  and  _395
REMARK  144  A    between atoms: _395  and  _396
REMARK  145  A    between atoms: _406  and  _408
REMARK  146  A    between atoms: _408  and  _409
REMARK  147  A    between atoms: _408  and  _411
REMARK  148  A    between atoms: _411  and  _412
REMARK  149  A    between atoms: _417  and  _419
REMARK  150  A    between atoms: _419  and  _420
REMARK  151  A    between atoms: _419  and  _422
REMARK  152  A    between atoms: _422  and  _423
REMARK  153  A    between atoms: _423  and  _424
REMARK  154  A    between atoms: _424  and  _425
REMARK                            x       y       z     vdW  Elec       q    Type
REMARK                         _______ _______ _______ _____ _____    ______ ____
ROOT
ATOM      1  CB  ASN A   1      24.278  24.419   9.319  0.00  0.00    +0.110 C 
ENDROOT
BRANCH   1   2
ATOM      2  CG  ASN A   1      22.765  24.449   9.140  0.00  0.00    +0.221 C 
ATOM      3  ND2 ASN A   1      22.171  25.622   9.349  0.00  0.00    -0.329 N 
ATOM      4 HD21 ASN A   1      22.736  26.448   9.633  0.00  0.00    +0.145 HD
ATOM      5 HD22 ASN A   1      21.142  25.713   9.228  0.00  0.00    +0.145 HD
ATOM      6  OD1 ASN A   1      22.144  23.444   8.803  0.00  0.00    -0.275 OA
ENDBRANCH   1   2
BRANCH   1   7
ATOM      7  CA  ASN A   1      24.824  23.007   9.588  0.00  0.00    +0.142 C 
BRANCH   7   8
ATOM      8  N   ASN A   1      24.476  22.114   8.495  0.00  0.00    -0.239 NA
ATOM      9  H   ASN A   1      23.549  22.205   8.032  0.00  0.00    +0.142 HD
ENDBRANCH   7   8
BRANCH   7  10
ATOM     10  C   ASN A   1      24.285  22.440  10.903  0.00  0.00    +0.225 C 
ATOM     11  O   ASN A   1      23.635  23.137  11.688  0.00  0.00    -0.287 OA
ENDBRANCH   7  10
ENDBRANCH   1   7
TORSDOF 4
REMARK  Name = ../refined-set-2016/1ttm/1ttm_pocket.pdb
REMARK  154 active torsions:
REMARK  status: ('A' for Active; 'I' for Inactive)
REMARK    1  A    between atoms: _1  and  _3
REMARK    2  A    between atoms: _3  and  _4
REMARK    3  A    between atoms: _3  and  _6
REMARK    4  A    between atoms: _6  and  _7
REMARK    5  A    between atoms: _17  and  _19
REMARK    6  A    between atoms: _19  and  _20
REMARK    7  A    between atoms: _19  and  _22
REMARK    8  A    between atoms: _22  and  _23
REMARK    9  A    between atoms: _28  and  _29
REMARK   10  A    between atoms: _31  and  _33
REMARK   11  A    between atoms: _33  and  _34
REMARK   12  A    between atoms: _33  and  _36
REMARK   13  A    between atoms: _36  and  _37
REMARK   14  A    between atoms: _40  and  _41
REMARK   15  A    between atoms: _46  and  _48
REMARK   16  A    between atoms: _48  and  _49
REMARK   17  A    between atoms: _48  and  _51
REMARK   18  A    between atoms: _51  and  _52
REMARK   19  A    between atoms: _57  and  _59
REMARK   20  A    between atoms: _59  and  _60
REMARK   21  A    between atoms: _59  and  _62
REMARK   22  A    between atoms: _62  and  _63
REMARK   23  A    between atoms: _68  and  _70
REMARK   24  A    between atoms: _70  and  _71
REMARK   25  A    between atoms: _70  and  _73
REMARK   26  A    between atoms: _73  and  _74
REMARK   27  A    between atoms: _79  and  _81
REMARK   28  A    between atoms: _81  and  _82
REMARK   29  A    between atoms: _81  and  _84
REMARK   30  A    between atoms: _84  and  _85
REMARK   31  A    between atoms: _85  and  _86
REMARK   32  A    between atoms: _89  and  _91
REMARK   33  A    between atoms: _91  and  _92
REMARK   34  A    between atoms: _91  and  _94
REMARK   35  A    between atoms: _94  and  _95
REMARK   36  A    between atoms: _98  and  _100
REMARK   37  A    between atoms: _100  and  _101
REMARK   38  A    between atoms: _100  and  _103
REMARK   39  A    between atoms: _103  and  _104
REMARK   40  A    between atoms: _104  and  _105
REMARK   41  A    between atoms: _110  and  _112
REMARK   42  A    between atoms: _112  and  _113
REMARK   43  A    between atoms: _112  and  _115
REMARK   44  A    between atoms: _115  and  _116
REMARK   45  A    between atoms: _122  and  _124
REMARK   46  A    between atoms: _135  and  _138
REMARK   47  A    between atoms: _138  and  _139
REMARK   48  A    between atoms: _147  and  _148
REMARK   49  A    between atoms: _156  and  _158
REMARK   50  A    between atoms: _158  and  _159
REMARK   51  A    between atoms: _158  and  _161
REMARK   52  A    between atoms: _161  and  _162
REMARK   53  A    between atoms: _162  and  _163
REMARK   54  A    between atoms: _166  and  _168
REMARK   55  A    between atoms: _168  and  _169
REMARK   56  A    between atoms: _168  and  _171
REMARK   57  A    between atoms: _171  and  _172
REMARK   58  A    between atoms: _177  and  _179
REMARK   59  A    between atoms: _179  and  _180
REMARK   60  A    between atoms: _179  and  _182
REMARK   61  A    between atoms: _182  and  _183
REMARK   62  A    between atoms: _183  and  _184
REMARK   63  A    between atoms: _187  and  _189
REMARK   64  A    between atoms: _189  and  _190
REMARK   65  A    between atoms: _189  and  _192
REMARK   66  A    between atoms: _192  and  _193
REMARK   67  A    between atoms: _196  and  _198
REMARK   68  A    between atoms: _198  and  _199
REMARK   69  A    between atoms: _198  and  _201
REMARK   70  A    between atoms: _201  and  _202
REMARK   71  A    between atoms: _203  and  ZN_434
REMARK   72  A    between atoms: _207  and  _209
REMARK   73  A    between atoms: _209  and  _210
REMARK   74  A    between atoms: _209  and  _212
REMARK   75  A    between atoms: _212  and  _213
REMARK   76  A    between atoms: _216  and  _218
REMARK   77  A    between atoms: _218  and  _219
REMARK   78  A    between atoms: _218  and  _221
REMARK   79  A    between atoms: _224  and  _226
REMARK   80  A    between atoms: _226  and  _227
REMARK   81  A    between atoms: _226  and  _229
REMARK   82  A    between atoms: _229  and  _230
REMARK   83  A    between atoms: _235  and  _237
REMARK   84  A    between atoms: _237  and  _238
REMARK   85  A    between atoms: _237  and  _240
REMARK   86  A    between atoms: _240  and  _241
REMARK   87  A    between atoms: _251  and  _253
REMARK   88  A    between atoms: _253  and  _254
REMARK   89  A    between atoms: _253  and  _256
REMARK   90  A    between atoms: _256  and  _257
REMARK   91  A    between atoms: _263  and  _265
REMARK   92  A    between atoms: _265  and  _266
REMARK   93  A    between atoms: _268  and  _270
REMARK   94  A    between atoms: _270  and  _271
REMARK   95  A    between atoms: _270  and  _273
REMARK   96  A    between atoms: _276  and  _278
REMARK   97  A    between atoms: _278  and  _279
REMARK   98  A    between atoms: _278  and  _281
REMARK   99  A    between atoms: _281  and  _282
REMARK  100  A    between atoms: _285  and  _287
REMARK  101  A    between atoms: _287  and  _288
REMARK  102  A    between atoms: _291  and  _293
REMARK  103  A    between atoms: _293  and  _294
REMARK  104  A    between atoms: _293  and  _296
REMARK  105  A    between atoms: _299  and  _301
REMARK  106  A    between atoms: _301  and  _302
REMARK  107  A    between atoms: _301  and  _304
REMARK  108  A    between atoms: _304  and  _305
REMARK  109  A    between atoms: _308  and  _310
REMARK  110  A    between atoms: _310  and  _311
REMARK  111  A    between atoms: _310  and  _313
REMARK  112  A    between atoms: _313  and  _314
REMARK  113  A    between atoms: _316  and  _318
REMARK  114  A    between atoms: _318  and  _319
REMARK  115  A    between atoms: _318  and  _321
REMARK  116  A    between atoms: _321  and  _322
REMARK  117  A    between atoms: _325  and  _327
REMARK  118  A    between atoms: _327  and  _328
REMARK  119  A    between atoms: _327  and  _330
REMARK  120  A    between atoms: _330  and  _331
REMARK  121  A    between atoms: _334  and  _336
REMARK  122  A    between atoms: _336  and  _337
REMARK  123  A    between atoms: _336  and  _339
REMARK  124  A    between atoms: _339  and  _340
REMARK  125  A    between atoms: _344  and  _345
REMARK  126  A    between atoms: _351  and  _352
REMARK  127  A    between atoms: _357  and  _359
REMARK  128  A    between atoms: _359  and  _360
REMARK  129  A    between atoms: _359  and  _362
REMARK  130  A    between atoms: _362  and  _363
REMARK  131  A    between atoms: _366  and  _368
REMARK  132  A    between atoms: _368  and  _369
REMARK  133  A    between atoms: _368  and  _371
REMARK  134  A    between atoms: _371  and  _372
REMARK  135  A    between atoms: _375  and  _377
REMARK  136  A    between atoms: _377  and  _378
REMARK  137  A    between atoms: _377  and  _380
REMARK  138  A    between atoms: _382  and  _384
REMARK  139  A    between atoms: _384  and  _385
REMARK  140  A    between atoms: _384  and  _387
REMARK  141  A    between atoms: _390  and  _392
REMARK  142  A    between atoms: _392  and  _393
REMARK  143  A    between atoms: _392  and  _395
REMARK  144  A    between atoms: _395  and  _396
REMARK  145  A    between atoms: _406  and  _408
REMARK  146  A    between atoms: _408  and  _409
REMARK  147  A    between atoms: _408  and  _411
REMARK  148  A    between atoms: _411  and  _412
REMARK  149  A    between atoms: _417  and  _419
REMARK  150  A    between atoms: _419  and  _420
REMARK  151  A    between atoms: _419  and  _422
REMARK  152  A    between atoms: _422  and  _423
REMARK  153  A    between atoms: _423  and  _424
REMARK  154  A    between atoms: _424  and  _425
REMARK                            x       y       z     vdW  Elec       q    Type
REMARK                         _______ _______ _______ _____ _____    ______ ____
ROOT
ATOM      1  NE  ARG A   1      28.402  20.025  19.728  0.00  0.00    +0.330 N 
ATOM      2  CZ  ARG A   1      28.494  20.225  21.039  0.00  0.00    +0.000 C 
ATOM      3  NH2 ARG A   1      27.423  20.574  21.740  0.00  0.00    +0.330 N 
ATOM      4 HH21 ARG A   1      27.501  20.729  22.765  0.00  0.00    +0.000 HD
ATOM      5 HH22 ARG A   1      26.506  20.692  21.264  0.00  0.00    +0.000 HD
ATOM      6  NH1 ARG A   1      29.663  20.077  21.649  0.00  0.00    +0.330 N 
ATOM      7 HH11 ARG A   1      29.738  20.233  22.675  0.00  0.00    +0.000 HD
ATOM      8 HH12 ARG A   1      30.504  19.805  21.102  0.00  0.00    +0.000 HD
ATOM      9  HE  ARG A   1      29.267  19.752  19.219  0.00  0.00    +0.000 HD
ENDROOT
BRANCH   1  10
ATOM     10  CD  ARG A   1      27.171  20.162  18.952  0.00  0.00    +0.000 C 
BRANCH  10  11
ATOM     11  CG  ARG A   1      27.355  19.637  17.523  0.00  0.00    +0.000 C 
BRANCH  11  12
ATOM     12  CB  ARG A   1      26.186  20.008  16.622  0.00  0.00    +0.000 C 
BRANCH  12  13
ATOM     13  CA  ARG A   1      26.142  19.228  15.303  0.00  0.00    +0.000 C 
BRANCH  13  14
ATOM     14  N   ARG A   1      25.124  19.784  14.423  0.00  0.00    +0.000 NA
ATOM     15  H   ARG A   1      24.229  20.116  14.837  0.00  0.00    +0.000 HD
ENDBRANCH  13  14
BRANCH  13  16
ATOM     16  C   ARG A   1      25.766  17.775  15.588  0.00  0.00    +0.000 C 
ATOM     17  O   ARG A   1      24.595  17.462  15.812  0.00  0.00    +0.000 OA
ENDBRANCH  13  16
ENDBRANCH  12  13
ENDBRANCH  11  12
ENDBRANCH  10  11
ENDBRANCH   1  10
TORSDOF 6
REMARK  Name = ../refined-set-2016/1ttm/1ttm_pocket.pdb
REMARK  154 active torsions:
REMARK  status: ('A' for Active; 'I' for Inactive)
REMARK    1  A    between atoms: _1  and  _3
REMARK    2  A    between atoms: _3  and  _4
REMARK    3  A    between atoms: _3  and  _6
REMARK    4  A    between atoms: _6  and  _7
REMARK    5  A    between atoms: _17  and  _19
REMARK    6  A    between atoms: _19  and  _20
REMARK    7  A    between atoms: _19  and  _22
REMARK    8  A    between atoms: _22  and  _23
REMARK    9  A    between atoms: _28  and  _29
REMARK   10  A    between atoms: _31  and  _33
REMARK   11  A    between atoms: _33  and  _34
REMARK   12  A    between atoms: _33  and  _36
REMARK   13  A    between atoms: _36  and  _37
REMARK   14  A    between atoms: _40  and  _41
REMARK   15  A    between atoms: _46  and  _48
REMARK   16  A    between atoms: _48  and  _49
REMARK   17  A    between atoms: _48  and  _51
REMARK   18  A    between atoms: _51  and  _52
REMARK   19  A    between atoms: _57  and  _59
REMARK   20  A    between atoms: _59  and  _60
REMARK   21  A    between atoms: _59  and  _62
REMARK   22  A    between atoms: _62  and  _63
REMARK   23  A    between atoms: _68  and  _70
REMARK   24  A    between atoms: _70  and  _71
REMARK   25  A    between atoms: _70  and  _73
REMARK   26  A    between atoms: _73  and  _74
REMARK   27  A    between atoms: _79  and  _81
REMARK   28  A    between atoms: _81  and  _82
REMARK   29  A    between atoms: _81  and  _84
REMARK   30  A    between atoms: _84  and  _85
REMARK   31  A    between atoms: _85  and  _86
REMARK   32  A    between atoms: _89  and  _91
REMARK   33  A    between atoms: _91  and  _92
REMARK   34  A    between atoms: _91  and  _94
REMARK   35  A    between atoms: _94  and  _95
REMARK   36  A    between atoms: _98  and  _100
REMARK   37  A    between atoms: _100  and  _101
REMARK   38  A    between atoms: _100  and  _103
REMARK   39  A    between atoms: _103  and  _104
REMARK   40  A    between atoms: _104  and  _105
REMARK   41  A    between atoms: _110  and  _112
REMARK   42  A    between atoms: _112  and  _113
REMARK   43  A    between atoms: _112  and  _115
REMARK   44  A    between atoms: _115  and  _116
REMARK   45  A    between atoms: _122  and  _124
REMARK   46  A    between atoms: _135  and  _138
REMARK   47  A    between atoms: _138  and  _139
REMARK   48  A    between atoms: _147  and  _148
REMARK   49  A    between atoms: _156  and  _158
REMARK   50  A    between atoms: _158  and  _159
REMARK   51  A    between atoms: _158  and  _161
REMARK   52  A    between atoms: _161  and  _162
REMARK   53  A    between atoms: _162  and  _163
REMARK   54  A    between atoms: _166  and  _168
REMARK   55  A    between atoms: _168  and  _169
REMARK   56  A    between atoms: _168  and  _171
REMARK   57  A    between atoms: _171  and  _172
REMARK   58  A    between atoms: _177  and  _179
REMARK   59  A    between atoms: _179  and  _180
REMARK   60  A    between atoms: _179  and  _182
REMARK   61  A    between atoms: _182  and  _183
REMARK   62  A    between atoms: _183  and  _184
REMARK   63  A    between atoms: _187  and  _189
REMARK   64  A    between atoms: _189  and  _190
REMARK   65  A    between atoms: _189  and  _192
REMARK   66  A    between atoms: _192  and  _193
REMARK   67  A    between atoms: _196  and  _198
REMARK   68  A    between atoms: _198  and  _199
REMARK   69  A    between atoms: _198  and  _201
REMARK   70  A    between atoms: _201  and  _202
REMARK   71  A    between atoms: _203  and  ZN_434
REMARK   72  A    between atoms: _207  and  _209
REMARK   73  A    between atoms: _209  and  _210
REMARK   74  A    between atoms: _209  and  _212
REMARK   75  A    between atoms: _212  and  _213
REMARK   76  A    between atoms: _216  and  _218
REMARK   77  A    between atoms: _218  and  _219
REMARK   78  A    between atoms: _218  and  _221
REMARK   79  A    between atoms: _224  and  _226
REMARK   80  A    between atoms: _226  and  _227
REMARK   81  A    between atoms: _226  and  _229
REMARK   82  A    between atoms: _229  and  _230
REMARK   83  A    between atoms: _235  and  _237
REMARK   84  A    between atoms: _237  and  _238
REMARK   85  A    between atoms: _237  and  _240
REMARK   86  A    between atoms: _240  and  _241
REMARK   87  A    between atoms: _251  and  _253
REMARK   88  A    between atoms: _253  and  _254
REMARK   89  A    between atoms: _253  and  _256
REMARK   90  A    between atoms: _256  and  _257
REMARK   91  A    between atoms: _263  and  _265
REMARK   92  A    between atoms: _265  and  _266
REMARK   93  A    between atoms: _268  and  _270
REMARK   94  A    between atoms: _270  and  _271
REMARK   95  A    between atoms: _270  and  _273
REMARK   96  A    between atoms: _276  and  _278
REMARK   97  A    between atoms: _278  and  _279
REMARK   98  A    between atoms: _278  and  _281
REMARK   99  A    between atoms: _281  and  _282
REMARK  100  A    between atoms: _285  and  _287
REMARK  101  A    between atoms: _287  and  _288
REMARK  102  A    between atoms: _291  and  _293
REMARK  103  A    between atoms: _293  and  _294
REMARK  104  A    between atoms: _293  and  _296
REMARK  105  A    between atoms: _299  and  _301
REMARK  106  A    between atoms: _301  and  _302
REMARK  107  A    between atoms: _301  and  _304
REMARK  108  A    between atoms: _304  and  _305
REMARK  109  A    between atoms: _308  and  _310
REMARK  110  A    between atoms: _310  and  _311
REMARK  111  A    between atoms: _310  and  _313
REMARK  112  A    between atoms: _313  and  _314
REMARK  113  A    between atoms: _316  and  _318
REMARK  114  A    between atoms: _318  and  _319
REMARK  115  A    between atoms: _318  and  _321
REMARK  116  A    between atoms: _321  and  _322
REMARK  117  A    between atoms: _325  and  _327
REMARK  118  A    between atoms: _327  and  _328
REMARK  119  A    between atoms: _327  and  _330
REMARK  120  A    between atoms: _330  and  _331
REMARK  121  A    between atoms: _334  and  _336
REMARK  122  A    between atoms: _336  and  _337
REMARK  123  A    between atoms: _336  and  _339
REMARK  124  A    between atoms: _339  and  _340
REMARK  125  A    between atoms: _344  and  _345
REMARK  126  A    between atoms: _351  and  _352
REMARK  127  A    between atoms: _357  and  _359
REMARK  128  A    between atoms: _359  and  _360
REMARK  129  A    between atoms: _359  and  _362
REMARK  130  A    between atoms: _362  and  _363
REMARK  131  A    between atoms: _366  and  _368
REMARK  132  A    between atoms: _368  and  _369
REMARK  133  A    between atoms: _368  and  _371
REMARK  134  A    between atoms: _371  and  _372
REMARK  135  A    between atoms: _375  and  _377
REMARK  136  A    between atoms: _377  and  _378
REMARK  137  A    between atoms: _377  and  _380
REMARK  138  A    between atoms: _382  and  _384
REMARK  139  A    between atoms: _384  and  _385
REMARK  140  A    between atoms: _384  and  _387
REMARK  141  A    between atoms: _390  and  _392
REMARK  142  A    between atoms: _392  and  _393
REMARK  143  A    between atoms: _392  and  _395
REMARK  144  A    between atoms: _395  and  _396
REMARK  145  A    between atoms: _406  and  _408
REMARK  146  A    between atoms: _408  and  _409
REMARK  147  A    between atoms: _408  and  _411
REMARK  148  A    between atoms: _411  and  _412
REMARK  149  A    between atoms: _417  and  _419
REMARK  150  A    between atoms: _419  and  _420
REMARK  151  A    between atoms: _419  and  _422
REMARK  152  A    between atoms: _422  and  _423
REMARK  153  A    between atoms: _423  and  _424
REMARK  154  A    between atoms: _424  and  _425
REMARK                            x       y       z     vdW  Elec       q    Type
REMARK                         _______ _______ _______ _____ _____    ______ ____
ROOT
ATOM      1  O   HOH     1      24.807  23.274  15.405  0.00  0.00    +0.000 OA
ENDROOT
TORSDOF 0
REMARK  Name = ../refined-set-2016/1ttm/1ttm_pocket.pdb
REMARK  154 active torsions:
REMARK  status: ('A' for Active; 'I' for Inactive)
REMARK    1  A    between atoms: _1  and  _3
REMARK    2  A    between atoms: _3  and  _4
REMARK    3  A    between atoms: _3  and  _6
REMARK    4  A    between atoms: _6  and  _7
REMARK    5  A    between atoms: _17  and  _19
REMARK    6  A    between atoms: _19  and  _20
REMARK    7  A    between atoms: _19  and  _22
REMARK    8  A    between atoms: _22  and  _23
REMARK    9  A    between atoms: _28  and  _29
REMARK   10  A    between atoms: _31  and  _33
REMARK   11  A    between atoms: _33  and  _34
REMARK   12  A    between atoms: _33  and  _36
REMARK   13  A    between atoms: _36  and  _37
REMARK   14  A    between atoms: _40  and  _41
REMARK   15  A    between atoms: _46  and  _48
REMARK   16  A    between atoms: _48  and  _49
REMARK   17  A    between atoms: _48  and  _51
REMARK   18  A    between atoms: _51  and  _52
REMARK   19  A    between atoms: _57  and  _59
REMARK   20  A    between atoms: _59  and  _60
REMARK   21  A    between atoms: _59  and  _62
REMARK   22  A    between atoms: _62  and  _63
REMARK   23  A    between atoms: _68  and  _70
REMARK   24  A    between atoms: _70  and  _71
REMARK   25  A    between atoms: _70  and  _73
REMARK   26  A    between atoms: _73  and  _74
REMARK   27  A    between atoms: _79  and  _81
REMARK   28  A    between atoms: _81  and  _82
REMARK   29  A    between atoms: _81  and  _84
REMARK   30  A    between atoms: _84  and  _85
REMARK   31  A    between atoms: _85  and  _86
REMARK   32  A    between atoms: _89  and  _91
REMARK   33  A    between atoms: _91  and  _92
REMARK   34  A    between atoms: _91  and  _94
REMARK   35  A    between atoms: _94  and  _95
REMARK   36  A    between atoms: _98  and  _100
REMARK   37  A    between atoms: _100  and  _101
REMARK   38  A    between atoms: _100  and  _103
REMARK   39  A    between atoms: _103  and  _104
REMARK   40  A    between atoms: _104  and  _105
REMARK   41  A    between atoms: _110  and  _112
REMARK   42  A    between atoms: _112  and  _113
REMARK   43  A    between atoms: _112  and  _115
REMARK   44  A    between atoms: _115  and  _116
REMARK   45  A    between atoms: _122  and  _124
REMARK   46  A    between atoms: _135  and  _138
REMARK   47  A    between atoms: _138  and  _139
REMARK   48  A    between atoms: _147  and  _148
REMARK   49  A    between atoms: _156  and  _158
REMARK   50  A    between atoms: _158  and  _159
REMARK   51  A    between atoms: _158  and  _161
REMARK   52  A    between atoms: _161  and  _162
REMARK   53  A    between atoms: _162  and  _163
REMARK   54  A    between atoms: _166  and  _168
REMARK   55  A    between atoms: _168  and  _169
REMARK   56  A    between atoms: _168  and  _171
REMARK   57  A    between atoms: _171  and  _172
REMARK   58  A    between atoms: _177  and  _179
REMARK   59  A    between atoms: _179  and  _180
REMARK   60  A    between atoms: _179  and  _182
REMARK   61  A    between atoms: _182  and  _183
REMARK   62  A    between atoms: _183  and  _184
REMARK   63  A    between atoms: _187  and  _189
REMARK   64  A    between atoms: _189  and  _190
REMARK   65  A    between atoms: _189  and  _192
REMARK   66  A    between atoms: _192  and  _193
REMARK   67  A    between atoms: _196  and  _198
REMARK   68  A    between atoms: _198  and  _199
REMARK   69  A    between atoms: _198  and  _201
REMARK   70  A    between atoms: _201  and  _202
REMARK   71  A    between atoms: _203  and  ZN_434
REMARK   72  A    between atoms: _207  and  _209
REMARK   73  A    between atoms: _209  and  _210
REMARK   74  A    between atoms: _209  and  _212
REMARK   75  A    between atoms: _212  and  _213
REMARK   76  A    between atoms: _216  and  _218
REMARK   77  A    between atoms: _218  and  _219
REMARK   78  A    between atoms: _218  and  _221
REMARK   79  A    between atoms: _224  and  _226
REMARK   80  A    between atoms: _226  and  _227
REMARK   81  A    between atoms: _226  and  _229
REMARK   82  A    between atoms: _229  and  _230
REMARK   83  A    between atoms: _235  and  _237
REMARK   84  A    between atoms: _237  and  _238
REMARK   85  A    between atoms: _237  and  _240
REMARK   86  A    between atoms: _240  and  _241
REMARK   87  A    between atoms: _251  and  _253
REMARK   88  A    between atoms: _253  and  _254
REMARK   89  A    between atoms: _253  and  _256
REMARK   90  A    between atoms: _256  and  _257
REMARK   91  A    between atoms: _263  and  _265
REMARK   92  A    between atoms: _265  and  _266
REMARK   93  A    between atoms: _268  and  _270
REMARK   94  A    between atoms: _270  and  _271
REMARK   95  A    between atoms: _270  and  _273
REMARK   96  A    between atoms: _276  and  _278
REMARK   97  A    between atoms: _278  and  _279
REMARK   98  A    between atoms: _278  and  _281
REMARK   99  A    between atoms: _281  and  _282
REMARK  100  A    between atoms: _285  and  _287
REMARK  101  A    between atoms: _287  and  _288
REMARK  102  A    between atoms: _291  and  _293
REMARK  103  A    between atoms: _293  and  _294
REMARK  104  A    between atoms: _293  and  _296
REMARK  105  A    between atoms: _299  and  _301
REMARK  106  A    between atoms: _301  and  _302
REMARK  107  A    between atoms: _301  and  _304
REMARK  108  A    between atoms: _304  and  _305
REMARK  109  A    between atoms: _308  and  _310
REMARK  110  A    between atoms: _310  and  _311
REMARK  111  A    between atoms: _310  and  _313
REMARK  112  A    between atoms: _313  and  _314
REMARK  113  A    between atoms: _316  and  _318
REMARK  114  A    between atoms: _318  and  _319
REMARK  115  A    between atoms: _318  and  _321
REMARK  116  A    between atoms: _321  and  _322
REMARK  117  A    between atoms: _325  and  _327
REMARK  118  A    between atoms: _327  and  _328
REMARK  119  A    between atoms: _327  and  _330
REMARK  120  A    between atoms: _330  and  _331
REMARK  121  A    between atoms: _334  and  _336
REMARK  122  A    between atoms: _336  and  _337
REMARK  123  A    between atoms: _336  and  _339
REMARK  124  A    between atoms: _339  and  _340
REMARK  125  A    between atoms: _344  and  _345
REMARK  126  A    between atoms: _351  and  _352
REMARK  127  A    between atoms: _357  and  _359
REMARK  128  A    between atoms: _359  and  _360
REMARK  129  A    between atoms: _359  and  _362
REMARK  130  A    between atoms: _362  and  _363
REMARK  131  A    between atoms: _366  and  _368
REMARK  132  A    between atoms: _368  and  _369
REMARK  133  A    between atoms: _368  and  _371
REMARK  134  A    between atoms: _371  and  _372
REMARK  135  A    between atoms: _375  and  _377
REMARK  136  A    between atoms: _377  and  _378
REMARK  137  A    between atoms: _377  and  _380
REMARK  138  A    between atoms: _382  and  _384
REMARK  139  A    between atoms: _384  and  _385
REMARK  140  A    between atoms: _384  and  _387
REMARK  141  A    between atoms: _390  and  _392
REMARK  142  A    between atoms: _392  and  _393
REMARK  143  A    between atoms: _392  and  _395
REMARK  144  A    between atoms: _395  and  _396
REMARK  145  A    between atoms: _406  and  _408
REMARK  146  A    between atoms: _408  and  _409
REMARK  147  A    between atoms: _408  and  _411
REMARK  148  A    between atoms: _411  and  _412
REMARK  149  A    between atoms: _417  and  _419
REMARK  150  A    between atoms: _419  and  _420
REMARK  151  A    between atoms: _419  and  _422
REMARK  152  A    between atoms: _422  and  _423
REMARK  153  A    between atoms: _423  and  _424
REMARK  154  A    between atoms: _424  and  _425
REMARK                            x       y       z     vdW  Elec       q    Type
REMARK                         _______ _______ _______ _____ _____    ______ ____
ROOT
ATOM      1  O   HOH     1      23.539  27.077  13.021  0.00  0.00    +0.000 OA
ENDROOT
TORSDOF 0
REMARK  Name = ../refined-set-2016/1ttm/1ttm_pocket.pdb
REMARK  154 active torsions:
REMARK  status: ('A' for Active; 'I' for Inactive)
REMARK    1  A    between atoms: _1  and  _3
REMARK    2  A    between atoms: _3  and  _4
REMARK    3  A    between atoms: _3  and  _6
REMARK    4  A    between atoms: _6  and  _7
REMARK    5  A    between atoms: _17  and  _19
REMARK    6  A    between atoms: _19  and  _20
REMARK    7  A    between atoms: _19  and  _22
REMARK    8  A    between atoms: _22  and  _23
REMARK    9  A    between atoms: _28  and  _29
REMARK   10  A    between atoms: _31  and  _33
REMARK   11  A    between atoms: _33  and  _34
REMARK   12  A    between atoms: _33  and  _36
REMARK   13  A    between atoms: _36  and  _37
REMARK   14  A    between atoms: _40  and  _41
REMARK   15  A    between atoms: _46  and  _48
REMARK   16  A    between atoms: _48  and  _49
REMARK   17  A    between atoms: _48  and  _51
REMARK   18  A    between atoms: _51  and  _52
REMARK   19  A    between atoms: _57  and  _59
REMARK   20  A    between atoms: _59  and  _60
REMARK   21  A    between atoms: _59  and  _62
REMARK   22  A    between atoms: _62  and  _63
REMARK   23  A    between atoms: _68  and  _70
REMARK   24  A    between atoms: _70  and  _71
REMARK   25  A    between atoms: _70  and  _73
REMARK   26  A    between atoms: _73  and  _74
REMARK   27  A    between atoms: _79  and  _81
REMARK   28  A    between atoms: _81  and  _82
REMARK   29  A    between atoms: _81  and  _84
REMARK   30  A    between atoms: _84  and  _85
REMARK   31  A    between atoms: _85  and  _86
REMARK   32  A    between atoms: _89  and  _91
REMARK   33  A    between atoms: _91  and  _92
REMARK   34  A    between atoms: _91  and  _94
REMARK   35  A    between atoms: _94  and  _95
REMARK   36  A    between atoms: _98  and  _100
REMARK   37  A    between atoms: _100  and  _101
REMARK   38  A    between atoms: _100  and  _103
REMARK   39  A    between atoms: _103  and  _104
REMARK   40  A    between atoms: _104  and  _105
REMARK   41  A    between atoms: _110  and  _112
REMARK   42  A    between atoms: _112  and  _113
REMARK   43  A    between atoms: _112  and  _115
REMARK   44  A    between atoms: _115  and  _116
REMARK   45  A    between atoms: _122  and  _124
REMARK   46  A    between atoms: _135  and  _138
REMARK   47  A    between atoms: _138  and  _139
REMARK   48  A    between atoms: _147  and  _148
REMARK   49  A    between atoms: _156  and  _158
REMARK   50  A    between atoms: _158  and  _159
REMARK   51  A    between atoms: _158  and  _161
REMARK   52  A    between atoms: _161  and  _162
REMARK   53  A    between atoms: _162  and  _163
REMARK   54  A    between atoms: _166  and  _168
REMARK   55  A    between atoms: _168  and  _169
REMARK   56  A    between atoms: _168  and  _171
REMARK   57  A    between atoms: _171  and  _172
REMARK   58  A    between atoms: _177  and  _179
REMARK   59  A    between atoms: _179  and  _180
REMARK   60  A    between atoms: _179  and  _182
REMARK   61  A    between atoms: _182  and  _183
REMARK   62  A    between atoms: _183  and  _184
REMARK   63  A    between atoms: _187  and  _189
REMARK   64  A    between atoms: _189  and  _190
REMARK   65  A    between atoms: _189  and  _192
REMARK   66  A    between atoms: _192  and  _193
REMARK   67  A    between atoms: _196  and  _198
REMARK   68  A    between atoms: _198  and  _199
REMARK   69  A    between atoms: _198  and  _201
REMARK   70  A    between atoms: _201  and  _202
REMARK   71  A    between atoms: _203  and  ZN_434
REMARK   72  A    between atoms: _207  and  _209
REMARK   73  A    between atoms: _209  and  _210
REMARK   74  A    between atoms: _209  and  _212
REMARK   75  A    between atoms: _212  and  _213
REMARK   76  A    between atoms: _216  and  _218
REMARK   77  A    between atoms: _218  and  _219
REMARK   78  A    between atoms: _218  and  _221
REMARK   79  A    between atoms: _224  and  _226
REMARK   80  A    between atoms: _226  and  _227
REMARK   81  A    between atoms: _226  and  _229
REMARK   82  A    between atoms: _229  and  _230
REMARK   83  A    between atoms: _235  and  _237
REMARK   84  A    between atoms: _237  and  _238
REMARK   85  A    between atoms: _237  and  _240
REMARK   86  A    between atoms: _240  and  _241
REMARK   87  A    between atoms: _251  and  _253
REMARK   88  A    between atoms: _253  and  _254
REMARK   89  A    between atoms: _253  and  _256
REMARK   90  A    between atoms: _256  and  _257
REMARK   91  A    between atoms: _263  and  _265
REMARK   92  A    between atoms: _265  and  _266
REMARK   93  A    between atoms: _268  and  _270
REMARK   94  A    between atoms: _270  and  _271
REMARK   95  A    between atoms: _270  and  _273
REMARK   96  A    between atoms: _276  and  _278
REMARK   97  A    between atoms: _278  and  _279
REMARK   98  A    between atoms: _278  and  _281
REMARK   99  A    between atoms: _281  and  _282
REMARK  100  A    between atoms: _285  and  _287
REMARK  101  A    between atoms: _287  and  _288
REMARK  102  A    between atoms: _291  and  _293
REMARK  103  A    between atoms: _293  and  _294
REMARK  104  A    between atoms: _293  and  _296
REMARK  105  A    between atoms: _299  and  _301
REMARK  106  A    between atoms: _301  and  _302
REMARK  107  A    between atoms: _301  and  _304
REMARK  108  A    between atoms: _304  and  _305
REMARK  109  A    between atoms: _308  and  _310
REMARK  110  A    between atoms: _310  and  _311
REMARK  111  A    between atoms: _310  and  _313
REMARK  112  A    between atoms: _313  and  _314
REMARK  113  A    between atoms: _316  and  _318
REMARK  114  A    between atoms: _318  and  _319
REMARK  115  A    between atoms: _318  and  _321
REMARK  116  A    between atoms: _321  and  _322
REMARK  117  A    between atoms: _325  and  _327
REMARK  118  A    between atoms: _327  and  _328
REMARK  119  A    between atoms: _327  and  _330
REMARK  120  A    between atoms: _330  and  _331
REMARK  121  A    between atoms: _334  and  _336
REMARK  122  A    between atoms: _336  and  _337
REMARK  123  A    between atoms: _336  and  _339
REMARK  124  A    between atoms: _339  and  _340
REMARK  125  A    between atoms: _344  and  _345
REMARK  126  A    between atoms: _351  and  _352
REMARK  127  A    between atoms: _357  and  _359
REMARK  128  A    between atoms: _359  and  _360
REMARK  129  A    between atoms: _359  and  _362
REMARK  130  A    between atoms: _362  and  _363
REMARK  131  A    between atoms: _366  and  _368
REMARK  132  A    between atoms: _368  and  _369
REMARK  133  A    between atoms: _368  and  _371
REMARK  134  A    between atoms: _371  and  _372
REMARK  135  A    between atoms: _375  and  _377
REMARK  136  A    between atoms: _377  and  _378
REMARK  137  A    between atoms: _377  and  _380
REMARK  138  A    between atoms: _382  and  _384
REMARK  139  A    between atoms: _384  and  _385
REMARK  140  A    between atoms: _384  and  _387
REMARK  141  A    between atoms: _390  and  _392
REMARK  142  A    between atoms: _392  and  _393
REMARK  143  A    between atoms: _392  and  _395
REMARK  144  A    between atoms: _395  and  _396
REMARK  145  A    between atoms: _406  and  _408
REMARK  146  A    between atoms: _408  and  _409
REMARK  147  A    between atoms: _408  and  _411
REMARK  148  A    between atoms: _411  and  _412
REMARK  149  A    between atoms: _417  and  _419
REMARK  150  A    between atoms: _419  and  _420
REMARK  151  A    between atoms: _419  and  _422
REMARK  152  A    between atoms: _422  and  _423
REMARK  153  A    between atoms: _423  and  _424
REMARK  154  A    between atoms: _424  and  _425
REMARK                            x       y       z     vdW  Elec       q    Type
REMARK                         _______ _______ _______ _____ _____    ______ ____
ROOT
ATOM      1  O   HOH     1      24.528  30.330  16.421  0.00  0.00    +0.000 OA
ENDROOT
TORSDOF 0
REMARK  Name = ../refined-set-2016/1ttm/1ttm_pocket.pdb
REMARK  154 active torsions:
REMARK  status: ('A' for Active; 'I' for Inactive)
REMARK    1  A    between atoms: _1  and  _3
REMARK    2  A    between atoms: _3  and  _4
REMARK    3  A    between atoms: _3  and  _6
REMARK    4  A    between atoms: _6  and  _7
REMARK    5  A    between atoms: _17  and  _19
REMARK    6  A    between atoms: _19  and  _20
REMARK    7  A    between atoms: _19  and  _22
REMARK    8  A    between atoms: _22  and  _23
REMARK    9  A    between atoms: _28  and  _29
REMARK   10  A    between atoms: _31  and  _33
REMARK   11  A    between atoms: _33  and  _34
REMARK   12  A    between atoms: _33  and  _36
REMARK   13  A    between atoms: _36  and  _37
REMARK   14  A    between atoms: _40  and  _41
REMARK   15  A    between atoms: _46  and  _48
REMARK   16  A    between atoms: _48  and  _49
REMARK   17  A    between atoms: _48  and  _51
REMARK   18  A    between atoms: _51  and  _52
REMARK   19  A    between atoms: _57  and  _59
REMARK   20  A    between atoms: _59  and  _60
REMARK   21  A    between atoms: _59  and  _62
REMARK   22  A    between atoms: _62  and  _63
REMARK   23  A    between atoms: _68  and  _70
REMARK   24  A    between atoms: _70  and  _71
REMARK   25  A    between atoms: _70  and  _73
REMARK   26  A    between atoms: _73  and  _74
REMARK   27  A    between atoms: _79  and  _81
REMARK   28  A    between atoms: _81  and  _82
REMARK   29  A    between atoms: _81  and  _84
REMARK   30  A    between atoms: _84  and  _85
REMARK   31  A    between atoms: _85  and  _86
REMARK   32  A    between atoms: _89  and  _91
REMARK   33  A    between atoms: _91  and  _92
REMARK   34  A    between atoms: _91  and  _94
REMARK   35  A    between atoms: _94  and  _95
REMARK   36  A    between atoms: _98  and  _100
REMARK   37  A    between atoms: _100  and  _101
REMARK   38  A    between atoms: _100  and  _103
REMARK   39  A    between atoms: _103  and  _104
REMARK   40  A    between atoms: _104  and  _105
REMARK   41  A    between atoms: _110  and  _112
REMARK   42  A    between atoms: _112  and  _113
REMARK   43  A    between atoms: _112  and  _115
REMARK   44  A    between atoms: _115  and  _116
REMARK   45  A    between atoms: _122  and  _124
REMARK   46  A    between atoms: _135  and  _138
REMARK   47  A    between atoms: _138  and  _139
REMARK   48  A    between atoms: _147  and  _148
REMARK   49  A    between atoms: _156  and  _158
REMARK   50  A    between atoms: _158  and  _159
REMARK   51  A    between atoms: _158  and  _161
REMARK   52  A    between atoms: _161  and  _162
REMARK   53  A    between atoms: _162  and  _163
REMARK   54  A    between atoms: _166  and  _168
REMARK   55  A    between atoms: _168  and  _169
REMARK   56  A    between atoms: _168  and  _171
REMARK   57  A    between atoms: _171  and  _172
REMARK   58  A    between atoms: _177  and  _179
REMARK   59  A    between atoms: _179  and  _180
REMARK   60  A    between atoms: _179  and  _182
REMARK   61  A    between atoms: _182  and  _183
REMARK   62  A    between atoms: _183  and  _184
REMARK   63  A    between atoms: _187  and  _189
REMARK   64  A    between atoms: _189  and  _190
REMARK   65  A    between atoms: _189  and  _192
REMARK   66  A    between atoms: _192  and  _193
REMARK   67  A    between atoms: _196  and  _198
REMARK   68  A    between atoms: _198  and  _199
REMARK   69  A    between atoms: _198  and  _201
REMARK   70  A    between atoms: _201  and  _202
REMARK   71  A    between atoms: _203  and  ZN_434
REMARK   72  A    between atoms: _207  and  _209
REMARK   73  A    between atoms: _209  and  _210
REMARK   74  A    between atoms: _209  and  _212
REMARK   75  A    between atoms: _212  and  _213
REMARK   76  A    between atoms: _216  and  _218
REMARK   77  A    between atoms: _218  and  _219
REMARK   78  A    between atoms: _218  and  _221
REMARK   79  A    between atoms: _224  and  _226
REMARK   80  A    between atoms: _226  and  _227
REMARK   81  A    between atoms: _226  and  _229
REMARK   82  A    between atoms: _229  and  _230
REMARK   83  A    between atoms: _235  and  _237
REMARK   84  A    between atoms: _237  and  _238
REMARK   85  A    between atoms: _237  and  _240
REMARK   86  A    between atoms: _240  and  _241
REMARK   87  A    between atoms: _251  and  _253
REMARK   88  A    between atoms: _253  and  _254
REMARK   89  A    between atoms: _253  and  _256
REMARK   90  A    between atoms: _256  and  _257
REMARK   91  A    between atoms: _263  and  _265
REMARK   92  A    between atoms: _265  and  _266
REMARK   93  A    between atoms: _268  and  _270
REMARK   94  A    between atoms: _270  and  _271
REMARK   95  A    between atoms: _270  and  _273
REMARK   96  A    between atoms: _276  and  _278
REMARK   97  A    between atoms: _278  and  _279
REMARK   98  A    between atoms: _278  and  _281
REMARK   99  A    between atoms: _281  and  _282
REMARK  100  A    between atoms: _285  and  _287
REMARK  101  A    between atoms: _287  and  _288
REMARK  102  A    between atoms: _291  and  _293
REMARK  103  A    between atoms: _293  and  _294
REMARK  104  A    between atoms: _293  and  _296
REMARK  105  A    between atoms: _299  and  _301
REMARK  106  A    between atoms: _301  and  _302
REMARK  107  A    between atoms: _301  and  _304
REMARK  108  A    between atoms: _304  and  _305
REMARK  109  A    between atoms: _308  and  _310
REMARK  110  A    between atoms: _310  and  _311
REMARK  111  A    between atoms: _310  and  _313
REMARK  112  A    between atoms: _313  and  _314
REMARK  113  A    between atoms: _316  and  _318
REMARK  114  A    between atoms: _318  and  _319
REMARK  115  A    between atoms: _318  and  _321
REMARK  116  A    between atoms: _321  and  _322
REMARK  117  A    between atoms: _325  and  _327
REMARK  118  A    between atoms: _327  and  _328
REMARK  119  A    between atoms: _327  and  _330
REMARK  120  A    between atoms: _330  and  _331
REMARK  121  A    between atoms: _334  and  _336
REMARK  122  A    between atoms: _336  and  _337
REMARK  123  A    between atoms: _336  and  _339
REMARK  124  A    between atoms: _339  and  _340
REMARK  125  A    between atoms: _344  and  _345
REMARK  126  A    between atoms: _351  and  _352
REMARK  127  A    between atoms: _357  and  _359
REMARK  128  A    between atoms: _359  and  _360
REMARK  129  A    between atoms: _359  and  _362
REMARK  130  A    between atoms: _362  and  _363
REMARK  131  A    between atoms: _366  and  _368
REMARK  132  A    between atoms: _368  and  _369
REMARK  133  A    between atoms: _368  and  _371
REMARK  134  A    between atoms: _371  and  _372
REMARK  135  A    between atoms: _375  and  _377
REMARK  136  A    between atoms: _377  and  _378
REMARK  137  A    between atoms: _377  and  _380
REMARK  138  A    between atoms: _382  and  _384
REMARK  139  A    between atoms: _384  and  _385
REMARK  140  A    between atoms: _384  and  _387
REMARK  141  A    between atoms: _390  and  _392
REMARK  142  A    between atoms: _392  and  _393
REMARK  143  A    between atoms: _392  and  _395
REMARK  144  A    between atoms: _395  and  _396
REMARK  145  A    between atoms: _406  and  _408
REMARK  146  A    between atoms: _408  and  _409
REMARK  147  A    between atoms: _408  and  _411
REMARK  148  A    between atoms: _411  and  _412
REMARK  149  A    between atoms: _417  and  _419
REMARK  150  A    between atoms: _419  and  _420
REMARK  151  A    between atoms: _419  and  _422
REMARK  152  A    between atoms: _422  and  _423
REMARK  153  A    between atoms: _423  and  _424
REMARK  154  A    between atoms: _424  and  _425
REMARK                            x       y       z     vdW  Elec       q    Type
REMARK                         _______ _______ _______ _____ _____    ______ ____
ROOT
ATOM      1  O   HOH     1      22.072  28.441  15.173  0.00  0.00    +0.000 OA
ENDROOT
TORSDOF 0
REMARK  Name = ../refined-set-2016/1ttm/1ttm_pocket.pdb
REMARK  154 active torsions:
REMARK  status: ('A' for Active; 'I' for Inactive)
REMARK    1  A    between atoms: _1  and  _3
REMARK    2  A    between atoms: _3  and  _4
REMARK    3  A    between atoms: _3  and  _6
REMARK    4  A    between atoms: _6  and  _7
REMARK    5  A    between atoms: _17  and  _19
REMARK    6  A    between atoms: _19  and  _20
REMARK    7  A    between atoms: _19  and  _22
REMARK    8  A    between atoms: _22  and  _23
REMARK    9  A    between atoms: _28  and  _29
REMARK   10  A    between atoms: _31  and  _33
REMARK   11  A    between atoms: _33  and  _34
REMARK   12  A    between atoms: _33  and  _36
REMARK   13  A    between atoms: _36  and  _37
REMARK   14  A    between atoms: _40  and  _41
REMARK   15  A    between atoms: _46  and  _48
REMARK   16  A    between atoms: _48  and  _49
REMARK   17  A    between atoms: _48  and  _51
REMARK   18  A    between atoms: _51  and  _52
REMARK   19  A    between atoms: _57  and  _59
REMARK   20  A    between atoms: _59  and  _60
REMARK   21  A    between atoms: _59  and  _62
REMARK   22  A    between atoms: _62  and  _63
REMARK   23  A    between atoms: _68  and  _70
REMARK   24  A    between atoms: _70  and  _71
REMARK   25  A    between atoms: _70  and  _73
REMARK   26  A    between atoms: _73  and  _74
REMARK   27  A    between atoms: _79  and  _81
REMARK   28  A    between atoms: _81  and  _82
REMARK   29  A    between atoms: _81  and  _84
REMARK   30  A    between atoms: _84  and  _85
REMARK   31  A    between atoms: _85  and  _86
REMARK   32  A    between atoms: _89  and  _91
REMARK   33  A    between atoms: _91  and  _92
REMARK   34  A    between atoms: _91  and  _94
REMARK   35  A    between atoms: _94  and  _95
REMARK   36  A    between atoms: _98  and  _100
REMARK   37  A    between atoms: _100  and  _101
REMARK   38  A    between atoms: _100  and  _103
REMARK   39  A    between atoms: _103  and  _104
REMARK   40  A    between atoms: _104  and  _105
REMARK   41  A    between atoms: _110  and  _112
REMARK   42  A    between atoms: _112  and  _113
REMARK   43  A    between atoms: _112  and  _115
REMARK   44  A    between atoms: _115  and  _116
REMARK   45  A    between atoms: _122  and  _124
REMARK   46  A    between atoms: _135  and  _138
REMARK   47  A    between atoms: _138  and  _139
REMARK   48  A    between atoms: _147  and  _148
REMARK   49  A    between atoms: _156  and  _158
REMARK   50  A    between atoms: _158  and  _159
REMARK   51  A    between atoms: _158  and  _161
REMARK   52  A    between atoms: _161  and  _162
REMARK   53  A    between atoms: _162  and  _163
REMARK   54  A    between atoms: _166  and  _168
REMARK   55  A    between atoms: _168  and  _169
REMARK   56  A    between atoms: _168  and  _171
REMARK   57  A    between atoms: _171  and  _172
REMARK   58  A    between atoms: _177  and  _179
REMARK   59  A    between atoms: _179  and  _180
REMARK   60  A    between atoms: _179  and  _182
REMARK   61  A    between atoms: _182  and  _183
REMARK   62  A    between atoms: _183  and  _184
REMARK   63  A    between atoms: _187  and  _189
REMARK   64  A    between atoms: _189  and  _190
REMARK   65  A    between atoms: _189  and  _192
REMARK   66  A    between atoms: _192  and  _193
REMARK   67  A    between atoms: _196  and  _198
REMARK   68  A    between atoms: _198  and  _199
REMARK   69  A    between atoms: _198  and  _201
REMARK   70  A    between atoms: _201  and  _202
REMARK   71  A    between atoms: _203  and  ZN_434
REMARK   72  A    between atoms: _207  and  _209
REMARK   73  A    between atoms: _209  and  _210
REMARK   74  A    between atoms: _209  and  _212
REMARK   75  A    between atoms: _212  and  _213
REMARK   76  A    between atoms: _216  and  _218
REMARK   77  A    between atoms: _218  and  _219
REMARK   78  A    between atoms: _218  and  _221
REMARK   79  A    between atoms: _224  and  _226
REMARK   80  A    between atoms: _226  and  _227
REMARK   81  A    between atoms: _226  and  _229
REMARK   82  A    between atoms: _229  and  _230
REMARK   83  A    between atoms: _235  and  _237
REMARK   84  A    between atoms: _237  and  _238
REMARK   85  A    between atoms: _237  and  _240
REMARK   86  A    between atoms: _240  and  _241
REMARK   87  A    between atoms: _251  and  _253
REMARK   88  A    between atoms: _253  and  _254
REMARK   89  A    between atoms: _253  and  _256
REMARK   90  A    between atoms: _256  and  _257
REMARK   91  A    between atoms: _263  and  _265
REMARK   92  A    between atoms: _265  and  _266
REMARK   93  A    between atoms: _268  and  _270
REMARK   94  A    between atoms: _270  and  _271
REMARK   95  A    between atoms: _270  and  _273
REMARK   96  A    between atoms: _276  and  _278
REMARK   97  A    between atoms: _278  and  _279
REMARK   98  A    between atoms: _278  and  _281
REMARK   99  A    between atoms: _281  and  _282
REMARK  100  A    between atoms: _285  and  _287
REMARK  101  A    between atoms: _287  and  _288
REMARK  102  A    between atoms: _291  and  _293
REMARK  103  A    between atoms: _293  and  _294
REMARK  104  A    between atoms: _293  and  _296
REMARK  105  A    between atoms: _299  and  _301
REMARK  106  A    between atoms: _301  and  _302
REMARK  107  A    between atoms: _301  and  _304
REMARK  108  A    between atoms: _304  and  _305
REMARK  109  A    between atoms: _308  and  _310
REMARK  110  A    between atoms: _310  and  _311
REMARK  111  A    between atoms: _310  and  _313
REMARK  112  A    between atoms: _313  and  _314
REMARK  113  A    between atoms: _316  and  _318
REMARK  114  A    between atoms: _318  and  _319
REMARK  115  A    between atoms: _318  and  _321
REMARK  116  A    between atoms: _321  and  _322
REMARK  117  A    between atoms: _325  and  _327
REMARK  118  A    between atoms: _327  and  _328
REMARK  119  A    between atoms: _327  and  _330
REMARK  120  A    between atoms: _330  and  _331
REMARK  121  A    between atoms: _334  and  _336
REMARK  122  A    between atoms: _336  and  _337
REMARK  123  A    between atoms: _336  and  _339
REMARK  124  A    between atoms: _339  and  _340
REMARK  125  A    between atoms: _344  and  _345
REMARK  126  A    between atoms: _351  and  _352
REMARK  127  A    between atoms: _357  and  _359
REMARK  128  A    between atoms: _359  and  _360
REMARK  129  A    between atoms: _359  and  _362
REMARK  130  A    between atoms: _362  and  _363
REMARK  131  A    between atoms: _366  and  _368
REMARK  132  A    between atoms: _368  and  _369
REMARK  133  A    between atoms: _368  and  _371
REMARK  134  A    between atoms: _371  and  _372
REMARK  135  A    between atoms: _375  and  _377
REMARK  136  A    between atoms: _377  and  _378
REMARK  137  A    between atoms: _377  and  _380
REMARK  138  A    between atoms: _382  and  _384
REMARK  139  A    between atoms: _384  and  _385
REMARK  140  A    between atoms: _384  and  _387
REMARK  141  A    between atoms: _390  and  _392
REMARK  142  A    between atoms: _392  and  _393
REMARK  143  A    between atoms: _392  and  _395
REMARK  144  A    between atoms: _395  and  _396
REMARK  145  A    between atoms: _406  and  _408
REMARK  146  A    between atoms: _408  and  _409
REMARK  147  A    between atoms: _408  and  _411
REMARK  148  A    between atoms: _411  and  _412
REMARK  149  A    between atoms: _417  and  _419
REMARK  150  A    between atoms: _419  and  _420
REMARK  151  A    between atoms: _419  and  _422
REMARK  152  A    between atoms: _422  and  _423
REMARK  153  A    between atoms: _423  and  _424
REMARK  154  A    between atoms: _424  and  _425
REMARK                            x       y       z     vdW  Elec       q    Type
REMARK                         _______ _______ _______ _____ _____    ______ ____
ROOT
ATOM      1  O   HOH     1      21.047  30.720  14.338  0.00  0.00    +0.000 OA
ENDROOT
TORSDOF 0
REMARK  Name = ../refined-set-2016/1ttm/1ttm_pocket.pdb
REMARK  154 active torsions:
REMARK  status: ('A' for Active; 'I' for Inactive)
REMARK    1  A    between atoms: _1  and  _3
REMARK    2  A    between atoms: _3  and  _4
REMARK    3  A    between atoms: _3  and  _6
REMARK    4  A    between atoms: _6  and  _7
REMARK    5  A    between atoms: _17  and  _19
REMARK    6  A    between atoms: _19  and  _20
REMARK    7  A    between atoms: _19  and  _22
REMARK    8  A    between atoms: _22  and  _23
REMARK    9  A    between atoms: _28  and  _29
REMARK   10  A    between atoms: _31  and  _33
REMARK   11  A    between atoms: _33  and  _34
REMARK   12  A    between atoms: _33  and  _36
REMARK   13  A    between atoms: _36  and  _37
REMARK   14  A    between atoms: _40  and  _41
REMARK   15  A    between atoms: _46  and  _48
REMARK   16  A    between atoms: _48  and  _49
REMARK   17  A    between atoms: _48  and  _51
REMARK   18  A    between atoms: _51  and  _52
REMARK   19  A    between atoms: _57  and  _59
REMARK   20  A    between atoms: _59  and  _60
REMARK   21  A    between atoms: _59  and  _62
REMARK   22  A    between atoms: _62  and  _63
REMARK   23  A    between atoms: _68  and  _70
REMARK   24  A    between atoms: _70  and  _71
REMARK   25  A    between atoms: _70  and  _73
REMARK   26  A    between atoms: _73  and  _74
REMARK   27  A    between atoms: _79  and  _81
REMARK   28  A    between atoms: _81  and  _82
REMARK   29  A    between atoms: _81  and  _84
REMARK   30  A    between atoms: _84  and  _85
REMARK   31  A    between atoms: _85  and  _86
REMARK   32  A    between atoms: _89  and  _91
REMARK   33  A    between atoms: _91  and  _92
REMARK   34  A    between atoms: _91  and  _94
REMARK   35  A    between atoms: _94  and  _95
REMARK   36  A    between atoms: _98  and  _100
REMARK   37  A    between atoms: _100  and  _101
REMARK   38  A    between atoms: _100  and  _103
REMARK   39  A    between atoms: _103  and  _104
REMARK   40  A    between atoms: _104  and  _105
REMARK   41  A    between atoms: _110  and  _112
REMARK   42  A    between atoms: _112  and  _113
REMARK   43  A    between atoms: _112  and  _115
REMARK   44  A    between atoms: _115  and  _116
REMARK   45  A    between atoms: _122  and  _124
REMARK   46  A    between atoms: _135  and  _138
REMARK   47  A    between atoms: _138  and  _139
REMARK   48  A    between atoms: _147  and  _148
REMARK   49  A    between atoms: _156  and  _158
REMARK   50  A    between atoms: _158  and  _159
REMARK   51  A    between atoms: _158  and  _161
REMARK   52  A    between atoms: _161  and  _162
REMARK   53  A    between atoms: _162  and  _163
REMARK   54  A    between atoms: _166  and  _168
REMARK   55  A    between atoms: _168  and  _169
REMARK   56  A    between atoms: _168  and  _171
REMARK   57  A    between atoms: _171  and  _172
REMARK   58  A    between atoms: _177  and  _179
REMARK   59  A    between atoms: _179  and  _180
REMARK   60  A    between atoms: _179  and  _182
REMARK   61  A    between atoms: _182  and  _183
REMARK   62  A    between atoms: _183  and  _184
REMARK   63  A    between atoms: _187  and  _189
REMARK   64  A    between atoms: _189  and  _190
REMARK   65  A    between atoms: _189  and  _192
REMARK   66  A    between atoms: _192  and  _193
REMARK   67  A    between atoms: _196  and  _198
REMARK   68  A    between atoms: _198  and  _199
REMARK   69  A    between atoms: _198  and  _201
REMARK   70  A    between atoms: _201  and  _202
REMARK   71  A    between atoms: _203  and  ZN_434
REMARK   72  A    between atoms: _207  and  _209
REMARK   73  A    between atoms: _209  and  _210
REMARK   74  A    between atoms: _209  and  _212
REMARK   75  A    between atoms: _212  and  _213
REMARK   76  A    between atoms: _216  and  _218
REMARK   77  A    between atoms: _218  and  _219
REMARK   78  A    between atoms: _218  and  _221
REMARK   79  A    between atoms: _224  and  _226
REMARK   80  A    between atoms: _226  and  _227
REMARK   81  A    between atoms: _226  and  _229
REMARK   82  A    between atoms: _229  and  _230
REMARK   83  A    between atoms: _235  and  _237
REMARK   84  A    between atoms: _237  and  _238
REMARK   85  A    between atoms: _237  and  _240
REMARK   86  A    between atoms: _240  and  _241
REMARK   87  A    between atoms: _251  and  _253
REMARK   88  A    between atoms: _253  and  _254
REMARK   89  A    between atoms: _253  and  _256
REMARK   90  A    between atoms: _256  and  _257
REMARK   91  A    between atoms: _263  and  _265
REMARK   92  A    between atoms: _265  and  _266
REMARK   93  A    between atoms: _268  and  _270
REMARK   94  A    between atoms: _270  and  _271
REMARK   95  A    between atoms: _270  and  _273
REMARK   96  A    between atoms: _276  and  _278
REMARK   97  A    between atoms: _278  and  _279
REMARK   98  A    between atoms: _278  and  _281
REMARK   99  A    between atoms: _281  and  _282
REMARK  100  A    between atoms: _285  and  _287
REMARK  101  A    between atoms: _287  and  _288
REMARK  102  A    between atoms: _291  and  _293
REMARK  103  A    between atoms: _293  and  _294
REMARK  104  A    between atoms: _293  and  _296
REMARK  105  A    between atoms: _299  and  _301
REMARK  106  A    between atoms: _301  and  _302
REMARK  107  A    between atoms: _301  and  _304
REMARK  108  A    between atoms: _304  and  _305
REMARK  109  A    between atoms: _308  and  _310
REMARK  110  A    between atoms: _310  and  _311
REMARK  111  A    between atoms: _310  and  _313
REMARK  112  A    between atoms: _313  and  _314
REMARK  113  A    between atoms: _316  and  _318
REMARK  114  A    between atoms: _318  and  _319
REMARK  115  A    between atoms: _318  and  _321
REMARK  116  A    between atoms: _321  and  _322
REMARK  117  A    between atoms: _325  and  _327
REMARK  118  A    between atoms: _327  and  _328
REMARK  119  A    between atoms: _327  and  _330
REMARK  120  A    between atoms: _330  and  _331
REMARK  121  A    between atoms: _334  and  _336
REMARK  122  A    between atoms: _336  and  _337
REMARK  123  A    between atoms: _336  and  _339
REMARK  124  A    between atoms: _339  and  _340
REMARK  125  A    between atoms: _344  and  _345
REMARK  126  A    between atoms: _351  and  _352
REMARK  127  A    between atoms: _357  and  _359
REMARK  128  A    between atoms: _359  and  _360
REMARK  129  A    between atoms: _359  and  _362
REMARK  130  A    between atoms: _362  and  _363
REMARK  131  A    between atoms: _366  and  _368
REMARK  132  A    between atoms: _368  and  _369
REMARK  133  A    between atoms: _368  and  _371
REMARK  134  A    between atoms: _371  and  _372
REMARK  135  A    between atoms: _375  and  _377
REMARK  136  A    between atoms: _377  and  _378
REMARK  137  A    between atoms: _377  and  _380
REMARK  138  A    between atoms: _382  and  _384
REMARK  139  A    between atoms: _384  and  _385
REMARK  140  A    between atoms: _384  and  _387
REMARK  141  A    between atoms: _390  and  _392
REMARK  142  A    between atoms: _392  and  _393
REMARK  143  A    between atoms: _392  and  _395
REMARK  144  A    between atoms: _395  and  _396
REMARK  145  A    between atoms: _406  and  _408
REMARK  146  A    between atoms: _408  and  _409
REMARK  147  A    between atoms: _408  and  _411
REMARK  148  A    between atoms: _411  and  _412
REMARK  149  A    between atoms: _417  and  _419
REMARK  150  A    between atoms: _419  and  _420
REMARK  151  A    between atoms: _419  and  _422
REMARK  152  A    between atoms: _422  and  _423
REMARK  153  A    between atoms: _423  and  _424
REMARK  154  A    between atoms: _424  and  _425
REMARK                            x       y       z     vdW  Elec       q    Type
REMARK                         _______ _______ _______ _____ _____    ______ ____
ROOT
ATOM      1  O   HOH     1      27.704  32.602  18.507  0.00  0.00    +0.000 OA
ENDROOT
TORSDOF 0
REMARK  Name = ../refined-set-2016/1ttm/1ttm_pocket.pdb
REMARK  154 active torsions:
REMARK  status: ('A' for Active; 'I' for Inactive)
REMARK    1  A    between atoms: _1  and  _3
REMARK    2  A    between atoms: _3  and  _4
REMARK    3  A    between atoms: _3  and  _6
REMARK    4  A    between atoms: _6  and  _7
REMARK    5  A    between atoms: _17  and  _19
REMARK    6  A    between atoms: _19  and  _20
REMARK    7  A    between atoms: _19  and  _22
REMARK    8  A    between atoms: _22  and  _23
REMARK    9  A    between atoms: _28  and  _29
REMARK   10  A    between atoms: _31  and  _33
REMARK   11  A    between atoms: _33  and  _34
REMARK   12  A    between atoms: _33  and  _36
REMARK   13  A    between atoms: _36  and  _37
REMARK   14  A    between atoms: _40  and  _41
REMARK   15  A    between atoms: _46  and  _48
REMARK   16  A    between atoms: _48  and  _49
REMARK   17  A    between atoms: _48  and  _51
REMARK   18  A    between atoms: _51  and  _52
REMARK   19  A    between atoms: _57  and  _59
REMARK   20  A    between atoms: _59  and  _60
REMARK   21  A    between atoms: _59  and  _62
REMARK   22  A    between atoms: _62  and  _63
REMARK   23  A    between atoms: _68  and  _70
REMARK   24  A    between atoms: _70  and  _71
REMARK   25  A    between atoms: _70  and  _73
REMARK   26  A    between atoms: _73  and  _74
REMARK   27  A    between atoms: _79  and  _81
REMARK   28  A    between atoms: _81  and  _82
REMARK   29  A    between atoms: _81  and  _84
REMARK   30  A    between atoms: _84  and  _85
REMARK   31  A    between atoms: _85  and  _86
REMARK   32  A    between atoms: _89  and  _91
REMARK   33  A    between atoms: _91  and  _92
REMARK   34  A    between atoms: _91  and  _94
REMARK   35  A    between atoms: _94  and  _95
REMARK   36  A    between atoms: _98  and  _100
REMARK   37  A    between atoms: _100  and  _101
REMARK   38  A    between atoms: _100  and  _103
REMARK   39  A    between atoms: _103  and  _104
REMARK   40  A    between atoms: _104  and  _105
REMARK   41  A    between atoms: _110  and  _112
REMARK   42  A    between atoms: _112  and  _113
REMARK   43  A    between atoms: _112  and  _115
REMARK   44  A    between atoms: _115  and  _116
REMARK   45  A    between atoms: _122  and  _124
REMARK   46  A    between atoms: _135  and  _138
REMARK   47  A    between atoms: _138  and  _139
REMARK   48  A    between atoms: _147  and  _148
REMARK   49  A    between atoms: _156  and  _158
REMARK   50  A    between atoms: _158  and  _159
REMARK   51  A    between atoms: _158  and  _161
REMARK   52  A    between atoms: _161  and  _162
REMARK   53  A    between atoms: _162  and  _163
REMARK   54  A    between atoms: _166  and  _168
REMARK   55  A    between atoms: _168  and  _169
REMARK   56  A    between atoms: _168  and  _171
REMARK   57  A    between atoms: _171  and  _172
REMARK   58  A    between atoms: _177  and  _179
REMARK   59  A    between atoms: _179  and  _180
REMARK   60  A    between atoms: _179  and  _182
REMARK   61  A    between atoms: _182  and  _183
REMARK   62  A    between atoms: _183  and  _184
REMARK   63  A    between atoms: _187  and  _189
REMARK   64  A    between atoms: _189  and  _190
REMARK   65  A    between atoms: _189  and  _192
REMARK   66  A    between atoms: _192  and  _193
REMARK   67  A    between atoms: _196  and  _198
REMARK   68  A    between atoms: _198  and  _199
REMARK   69  A    between atoms: _198  and  _201
REMARK   70  A    between atoms: _201  and  _202
REMARK   71  A    between atoms: _203  and  ZN_434
REMARK   72  A    between atoms: _207  and  _209
REMARK   73  A    between atoms: _209  and  _210
REMARK   74  A    between atoms: _209  and  _212
REMARK   75  A    between atoms: _212  and  _213
REMARK   76  A    between atoms: _216  and  _218
REMARK   77  A    between atoms: _218  and  _219
REMARK   78  A    between atoms: _218  and  _221
REMARK   79  A    between atoms: _224  and  _226
REMARK   80  A    between atoms: _226  and  _227
REMARK   81  A    between atoms: _226  and  _229
REMARK   82  A    between atoms: _229  and  _230
REMARK   83  A    between atoms: _235  and  _237
REMARK   84  A    between atoms: _237  and  _238
REMARK   85  A    between atoms: _237  and  _240
REMARK   86  A    between atoms: _240  and  _241
REMARK   87  A    between atoms: _251  and  _253
REMARK   88  A    between atoms: _253  and  _254
REMARK   89  A    between atoms: _253  and  _256
REMARK   90  A    between atoms: _256  and  _257
REMARK   91  A    between atoms: _263  and  _265
REMARK   92  A    between atoms: _265  and  _266
REMARK   93  A    between atoms: _268  and  _270
REMARK   94  A    between atoms: _270  and  _271
REMARK   95  A    between atoms: _270  and  _273
REMARK   96  A    between atoms: _276  and  _278
REMARK   97  A    between atoms: _278  and  _279
REMARK   98  A    between atoms: _278  and  _281
REMARK   99  A    between atoms: _281  and  _282
REMARK  100  A    between atoms: _285  and  _287
REMARK  101  A    between atoms: _287  and  _288
REMARK  102  A    between atoms: _291  and  _293
REMARK  103  A    between atoms: _293  and  _294
REMARK  104  A    between atoms: _293  and  _296
REMARK  105  A    between atoms: _299  and  _301
REMARK  106  A    between atoms: _301  and  _302
REMARK  107  A    between atoms: _301  and  _304
REMARK  108  A    between atoms: _304  and  _305
REMARK  109  A    between atoms: _308  and  _310
REMARK  110  A    between atoms: _310  and  _311
REMARK  111  A    between atoms: _310  and  _313
REMARK  112  A    between atoms: _313  and  _314
REMARK  113  A    between atoms: _316  and  _318
REMARK  114  A    between atoms: _318  and  _319
REMARK  115  A    between atoms: _318  and  _321
REMARK  116  A    between atoms: _321  and  _322
REMARK  117  A    between atoms: _325  and  _327
REMARK  118  A    between atoms: _327  and  _328
REMARK  119  A    between atoms: _327  and  _330
REMARK  120  A    between atoms: _330  and  _331
REMARK  121  A    between atoms: _334  and  _336
REMARK  122  A    between atoms: _336  and  _337
REMARK  123  A    between atoms: _336  and  _339
REMARK  124  A    between atoms: _339  and  _340
REMARK  125  A    between atoms: _344  and  _345
REMARK  126  A    between atoms: _351  and  _352
REMARK  127  A    between atoms: _357  and  _359
REMARK  128  A    between atoms: _359  and  _360
REMARK  129  A    between atoms: _359  and  _362
REMARK  130  A    between atoms: _362  and  _363
REMARK  131  A    between atoms: _366  and  _368
REMARK  132  A    between atoms: _368  and  _369
REMARK  133  A    between atoms: _368  and  _371
REMARK  134  A    between atoms: _371  and  _372
REMARK  135  A    between atoms: _375  and  _377
REMARK  136  A    between atoms: _377  and  _378
REMARK  137  A    between atoms: _377  and  _380
REMARK  138  A    between atoms: _382  and  _384
REMARK  139  A    between atoms: _384  and  _385
REMARK  140  A    between atoms: _384  and  _387
REMARK  141  A    between atoms: _390  and  _392
REMARK  142  A    between atoms: _392  and  _393
REMARK  143  A    between atoms: _392  and  _395
REMARK  144  A    between atoms: _395  and  _396
REMARK  145  A    between atoms: _406  and  _408
REMARK  146  A    between atoms: _408  and  _409
REMARK  147  A    between atoms: _408  and  _411
REMARK  148  A    between atoms: _411  and  _412
REMARK  149  A    between atoms: _417  and  _419
REMARK  150  A    between atoms: _419  and  _420
REMARK  151  A    between atoms: _419  and  _422
REMARK  152  A    between atoms: _422  and  _423
REMARK  153  A    between atoms: _423  and  _424
REMARK  154  A    between atoms: _424  and  _425
REMARK                            x       y       z     vdW  Elec       q    Type
REMARK                         _______ _______ _______ _____ _____    ______ ____
ROOT
ATOM      1  O   HOH     1      25.524  32.780  16.911  0.00  0.00    +0.000 OA
ENDROOT
TORSDOF 0
