REMARK  Name = ../refined-set-2016/2vvv/2vvv_pocket.pdb
REMARK  215 active torsions:
REMARK  status: ('A' for Active; 'I' for Inactive)
REMARK    1  A    between atoms: _1  and  _5
REMARK    2  A    between atoms: _5  and  _6
REMARK    3  A    between atoms: _5  and  _8
REMARK    4  A    between atoms: _8  and  _9
REMARK    5  A    between atoms: _12  and  _14
REMARK    6  A    between atoms: _14  and  _15
REMARK    7  A    between atoms: _14  and  _17
REMARK    8  A    between atoms: _20  and  _22
REMARK    9  A    between atoms: _22  and  _23
REMARK   10  A    between atoms: _22  and  _25
REMARK   11  A    between atoms: _25  and  _26
REMARK   12  A    between atoms: _31  and  _33
REMARK   13  A    between atoms: _33  and  _34
REMARK   14  A    between atoms: _33  and  _36
REMARK   15  A    between atoms: _36  and  _37
REMARK   16  A    between atoms: _37  and  _38
REMARK   17  A    between atoms: _43  and  _45
REMARK   18  A    between atoms: _45  and  _46
REMARK   19  A    between atoms: _45  and  _48
REMARK   20  A    between atoms: _48  and  _49
REMARK   21  A    between atoms: _52  and  _54
REMARK   22  A    between atoms: _54  and  _55
REMARK   23  A    between atoms: _54  and  _57
REMARK   24  A    between atoms: _57  and  _58
REMARK   25  A    between atoms: _58  and  _59
REMARK   26  A    between atoms: _59  and  _60
REMARK   27  A    between atoms: _60  and  _61
REMARK   28  A    between atoms: _65  and  _67
REMARK   29  A    between atoms: _67  and  _68
REMARK   30  A    between atoms: _67  and  _70
REMARK   31  A    between atoms: _70  and  _71
REMARK   32  A    between atoms: _71  and  _72
REMARK   33  A    between atoms: _75  and  _77
REMARK   34  A    between atoms: _77  and  _78
REMARK   35  A    between atoms: _77  and  _80
REMARK   36  A    between atoms: _80  and  _81
REMARK   37  A    between atoms: _84  and  _86
REMARK   38  A    between atoms: _86  and  _87
REMARK   39  A    between atoms: _86  and  _89
REMARK   40  A    between atoms: _89  and  _90
REMARK   41  A    between atoms: _95  and  _96
REMARK   42  A    between atoms: _98  and  _100
REMARK   43  A    between atoms: _100  and  _101
REMARK   44  A    between atoms: _100  and  _103
REMARK   45  A    between atoms: _103  and  _104
REMARK   46  A    between atoms: _107  and  _109
REMARK   47  A    between atoms: _109  and  _110
REMARK   48  A    between atoms: _109  and  _112
REMARK   49  A    between atoms: _112  and  _113
REMARK   50  A    between atoms: _116  and  _118
REMARK   51  A    between atoms: _118  and  _119
REMARK   52  A    between atoms: _118  and  _121
REMARK   53  A    between atoms: _124  and  _126
REMARK   54  A    between atoms: _126  and  _127
REMARK   55  A    between atoms: _126  and  _129
REMARK   56  A    between atoms: _129  and  _130
REMARK   57  A    between atoms: _130  and  _131
REMARK   58  A    between atoms: _131  and  _132
REMARK   59  A    between atoms: _141  and  _143
REMARK   60  A    between atoms: _143  and  _144
REMARK   61  A    between atoms: _143  and  _146
REMARK   62  A    between atoms: _146  and  _147
REMARK   63  A    between atoms: _147  and  _148
REMARK   64  A    between atoms: _151  and  _153
REMARK   65  A    between atoms: _153  and  _154
REMARK   66  A    between atoms: _153  and  _156
REMARK   67  A    between atoms: _156  and  _157
REMARK   68  A    between atoms: _157  and  _158
REMARK   69  A    between atoms: _158  and  _159
REMARK   70  A    between atoms: _159  and  _160
REMARK   71  A    between atoms: _164  and  _166
REMARK   72  A    between atoms: _166  and  _167
REMARK   73  A    between atoms: _166  and  _169
REMARK   74  A    between atoms: _172  and  _174
REMARK   75  A    between atoms: _174  and  _175
REMARK   76  A    between atoms: _174  and  _177
REMARK   77  A    between atoms: _177  and  _178
REMARK   78  A    between atoms: _180  and  _182
REMARK   79  A    between atoms: _182  and  _183
REMARK   80  A    between atoms: _182  and  _185
REMARK   81  A    between atoms: _185  and  _186
REMARK   82  A    between atoms: _188  and  _190
REMARK   83  A    between atoms: _190  and  _191
REMARK   84  A    between atoms: _190  and  _193
REMARK   85  A    between atoms: _193  and  _194
REMARK   86  A    between atoms: _200  and  _202
REMARK   87  A    between atoms: _202  and  _203
REMARK   88  A    between atoms: _202  and  _205
REMARK   89  A    between atoms: _205  and  _206
REMARK   90  A    between atoms: _209  and  _211
REMARK   91  A    between atoms: _211  and  _212
REMARK   92  A    between atoms: _211  and  _214
REMARK   93  A    between atoms: _214  and  _215
REMARK   94  A    between atoms: _218  and  _220
REMARK   95  A    between atoms: _220  and  _221
REMARK   96  A    between atoms: _220  and  _223
REMARK   97  A    between atoms: _223  and  _224
REMARK   98  A    between atoms: _227  and  _229
REMARK   99  A    between atoms: _229  and  _230
REMARK  100  A    between atoms: _229  and  _232
REMARK  101  A    between atoms: _232  and  _233
REMARK  102  A    between atoms: _233  and  _234
REMARK  103  A    between atoms: _236  and  _238
REMARK  104  A    between atoms: _238  and  _239
REMARK  105  A    between atoms: _238  and  _241
REMARK  106  A    between atoms: _241  and  _242
REMARK  107  A    between atoms: _248  and  _250
REMARK  108  A    between atoms: _250  and  _251
REMARK  109  A    between atoms: _250  and  _253
REMARK  110  A    between atoms: _255  and  _257
REMARK  111  A    between atoms: _257  and  _258
REMARK  112  A    between atoms: _261  and  _263
REMARK  113  A    between atoms: _263  and  _264
REMARK  114  A    between atoms: _266  and  _268
REMARK  115  A    between atoms: _268  and  _269
REMARK  116  A    between atoms: _268  and  _271
REMARK  117  A    between atoms: _271  and  _272
REMARK  118  A    between atoms: _272  and  _273
REMARK  119  A    between atoms: _276  and  _278
REMARK  120  A    between atoms: _278  and  _279
REMARK  121  A    between atoms: _278  and  _281
REMARK  122  A    between atoms: _281  and  _282
REMARK  123  A    between atoms: _285  and  _287
REMARK  124  A    between atoms: _287  and  _288
REMARK  125  A    between atoms: _291  and  _293
REMARK  126  A    between atoms: _293  and  _294
REMARK  127  A    between atoms: _293  and  _296
REMARK  128  A    between atoms: _296  and  _297
REMARK  129  A    between atoms: _297  and  _420
REMARK  130  A    between atoms: _298  and  _300
REMARK  131  A    between atoms: _300  and  _301
REMARK  132  A    between atoms: _300  and  _303
REMARK  133  A    between atoms: _303  and  _304
REMARK  134  A    between atoms: _304  and  _305
REMARK  135  A    between atoms: _310  and  _312
REMARK  136  A    between atoms: _312  and  _313
REMARK  137  A    between atoms: _315  and  _317
REMARK  138  A    between atoms: _317  and  _318
REMARK  139  A    between atoms: _317  and  _320
REMARK  140  A    between atoms: _320  and  _321
REMARK  141  A    between atoms: _324  and  _326
REMARK  142  A    between atoms: _326  and  _327
REMARK  143  A    between atoms: _326  and  _329
REMARK  144  A    between atoms: _329  and  _330
REMARK  145  A    between atoms: _332  and  _334
REMARK  146  A    between atoms: _334  and  _335
REMARK  147  A    between atoms: _337  and  _339
REMARK  148  A    between atoms: _339  and  _340
REMARK  149  A    between atoms: _342  and  _344
REMARK  150  A    between atoms: _344  and  _345
REMARK  151  A    between atoms: _344  and  _347
REMARK  152  A    between atoms: _347  and  _348
REMARK  153  A    between atoms: _353  and  _355
REMARK  154  A    between atoms: _355  and  _356
REMARK  155  A    between atoms: _355  and  _358
REMARK  156  A    between atoms: _358  and  _359
REMARK  157  A    between atoms: _362  and  _364
REMARK  158  A    between atoms: _364  and  _365
REMARK  159  A    between atoms: _364  and  _367
REMARK  160  A    between atoms: _370  and  _372
REMARK  161  A    between atoms: _372  and  _373
REMARK  162  A    between atoms: _372  and  _375
REMARK  163  A    between atoms: _375  and  _376
REMARK  164  A    between atoms: _378  and  _380
REMARK  165  A    between atoms: _380  and  _381
REMARK  166  A    between atoms: _380  and  _383
REMARK  167  A    between atoms: _383  and  _384
REMARK  168  A    between atoms: _394  and  _396
REMARK  169  A    between atoms: _396  and  _397
REMARK  170  A    between atoms: _399  and  _401
REMARK  171  A    between atoms: _401  and  _402
REMARK  172  A    between atoms: _401  and  _404
REMARK  173  A    between atoms: _404  and  _405
REMARK  174  A    between atoms: _405  and  _406
REMARK  175  A    between atoms: _409  and  _411
REMARK  176  A    between atoms: _411  and  _412
REMARK  177  A    between atoms: _414  and  _416
REMARK  178  A    between atoms: _416  and  _417
REMARK  179  A    between atoms: _416  and  _419
REMARK  180  A    between atoms: _419  and  _420
REMARK  181  A    between atoms: _421  and  _423
REMARK  182  A    between atoms: _423  and  _424
REMARK  183  A    between atoms: _427  and  _429
REMARK  184  A    between atoms: _429  and  _430
REMARK  185  A    between atoms: _429  and  _432
REMARK  186  A    between atoms: _432  and  _433
REMARK  187  A    between atoms: _433  and  _434
REMARK  188  A    between atoms: _434  and  _435
REMARK  189  A    between atoms: _444  and  _446
REMARK  190  A    between atoms: _446  and  _447
REMARK  191  A    between atoms: _446  and  _449
REMARK  192  A    between atoms: _449  and  _450
REMARK  193  A    between atoms: _450  and  _451
REMARK  194  A    between atoms: _451  and  _452
REMARK  195  A    between atoms: _452  and  _453
REMARK  196  A    between atoms: _457  and  _459
REMARK  197  A    between atoms: _459  and  _460
REMARK  198  A    between atoms: _459  and  _462
REMARK  199  A    between atoms: _462  and  _463
REMARK  200  A    between atoms: _468  and  _469
REMARK  201  A    between atoms: _471  and  _473
REMARK  202  A    between atoms: _473  and  _474
REMARK  203  A    between atoms: _476  and  _478
REMARK  204  A    between atoms: _478  and  _479
REMARK  205  A    between atoms: _478  and  _481
REMARK  206  A    between atoms: _481  and  _482
REMARK  207  A    between atoms: _485  and  _487
REMARK  208  A    between atoms: _487  and  _488
REMARK  209  A    between atoms: _487  and  _490
REMARK  210  A    between atoms: _490  and  _491
REMARK  211  A    between atoms: _496  and  _497
REMARK  212  A    between atoms: _499  and  _501
REMARK  213  A    between atoms: _501  and  _502
REMARK  214  A    between atoms: _501  and  _504
REMARK  215  A    between atoms: _504  and  _505
REMARK                            x       y       z     vdW  Elec       q    Type
REMARK                         _______ _______ _______ _____ _____    ______ ____
ROOT
ATOM      1  C   ILE A   1       1.523  12.488  35.060  0.00  0.00    +0.202 C 
ATOM      2  O   ILE A   1       1.874  13.489  35.707  0.00  0.00    -0.277 OA
ATOM      3  N   VAL A   2       0.322  11.921  35.174  0.00  0.00    -0.301 N 
ATOM      4  H   VAL A   2       0.096  11.117  34.555  0.00  0.00    +0.150 HD
ENDROOT
BRANCH   1   5
ATOM      5  CA  ILE A   1       2.493  11.830  34.059  0.00  0.00    +0.013 C 
BRANCH   5   6
ATOM      6  N   ILE A   1       2.923  12.735  32.961  0.00  0.00    +0.387 N 
ATOM      7  H1  ILE A   1       3.407  13.562  33.365  0.00  0.00    -0.089 HD
ATOM      8  H2  ILE A   1       2.089  13.048  32.425  0.00  0.00    -0.089 HD
ATOM      9  H3  ILE A   1       3.573  12.226  32.328  0.00  0.00    -0.089 HD
ENDBRANCH   5   6
BRANCH   5  10
ATOM     10  CB  ILE A   1       3.723  11.300  34.844  0.00  0.00    -0.011 C 
ATOM     11  CG2 ILE A   1       3.274  10.374  35.959  0.00  0.00    -0.002 C 
BRANCH  10  12
ATOM     12  CG1 ILE A   1       4.734  10.624  33.896  0.00  0.00    -0.002 C 
ATOM     13  CD1 ILE A   1       4.296   9.214  33.364  0.00  0.00    -0.000 C 
ENDBRANCH  10  12
ENDBRANCH   5  10
ENDBRANCH   1   5
BRANCH   3  14
ATOM     14  CA  VAL A   2      -0.690  12.369  36.121  0.00  0.00    +0.137 C 
BRANCH  14  15
ATOM     15  CB  VAL A   2      -2.094  12.087  35.534  0.00  0.00    +0.026 C 
ATOM     16  CG2 VAL A   2      -3.191  12.679  36.451  0.00  0.00    +0.002 C 
ATOM     17  CG1 VAL A   2      -2.193  12.681  34.142  0.00  0.00    +0.002 C 
ENDBRANCH  14  15
BRANCH  14  18
ATOM     18  C   VAL A   2      -0.495  11.547  37.380  0.00  0.00    +0.227 C 
ATOM     19  O   VAL A   2      -0.475  10.336  37.306  0.00  0.00    -0.286 OA
ENDBRANCH  14  18
ENDBRANCH   3  14
TORSDOF 7
REMARK  Name = ../refined-set-2016/2vvv/2vvv_pocket.pdb
REMARK  215 active torsions:
REMARK  status: ('A' for Active; 'I' for Inactive)
REMARK    1  A    between atoms: _1  and  _5
REMARK    2  A    between atoms: _5  and  _6
REMARK    3  A    between atoms: _5  and  _8
REMARK    4  A    between atoms: _8  and  _9
REMARK    5  A    between atoms: _12  and  _14
REMARK    6  A    between atoms: _14  and  _15
REMARK    7  A    between atoms: _14  and  _17
REMARK    8  A    between atoms: _20  and  _22
REMARK    9  A    between atoms: _22  and  _23
REMARK   10  A    between atoms: _22  and  _25
REMARK   11  A    between atoms: _25  and  _26
REMARK   12  A    between atoms: _31  and  _33
REMARK   13  A    between atoms: _33  and  _34
REMARK   14  A    between atoms: _33  and  _36
REMARK   15  A    between atoms: _36  and  _37
REMARK   16  A    between atoms: _37  and  _38
REMARK   17  A    between atoms: _43  and  _45
REMARK   18  A    between atoms: _45  and  _46
REMARK   19  A    between atoms: _45  and  _48
REMARK   20  A    between atoms: _48  and  _49
REMARK   21  A    between atoms: _52  and  _54
REMARK   22  A    between atoms: _54  and  _55
REMARK   23  A    between atoms: _54  and  _57
REMARK   24  A    between atoms: _57  and  _58
REMARK   25  A    between atoms: _58  and  _59
REMARK   26  A    between atoms: _59  and  _60
REMARK   27  A    between atoms: _60  and  _61
REMARK   28  A    between atoms: _65  and  _67
REMARK   29  A    between atoms: _67  and  _68
REMARK   30  A    between atoms: _67  and  _70
REMARK   31  A    between atoms: _70  and  _71
REMARK   32  A    between atoms: _71  and  _72
REMARK   33  A    between atoms: _75  and  _77
REMARK   34  A    between atoms: _77  and  _78
REMARK   35  A    between atoms: _77  and  _80
REMARK   36  A    between atoms: _80  and  _81
REMARK   37  A    between atoms: _84  and  _86
REMARK   38  A    between atoms: _86  and  _87
REMARK   39  A    between atoms: _86  and  _89
REMARK   40  A    between atoms: _89  and  _90
REMARK   41  A    between atoms: _95  and  _96
REMARK   42  A    between atoms: _98  and  _100
REMARK   43  A    between atoms: _100  and  _101
REMARK   44  A    between atoms: _100  and  _103
REMARK   45  A    between atoms: _103  and  _104
REMARK   46  A    between atoms: _107  and  _109
REMARK   47  A    between atoms: _109  and  _110
REMARK   48  A    between atoms: _109  and  _112
REMARK   49  A    between atoms: _112  and  _113
REMARK   50  A    between atoms: _116  and  _118
REMARK   51  A    between atoms: _118  and  _119
REMARK   52  A    between atoms: _118  and  _121
REMARK   53  A    between atoms: _124  and  _126
REMARK   54  A    between atoms: _126  and  _127
REMARK   55  A    between atoms: _126  and  _129
REMARK   56  A    between atoms: _129  and  _130
REMARK   57  A    between atoms: _130  and  _131
REMARK   58  A    between atoms: _131  and  _132
REMARK   59  A    between atoms: _141  and  _143
REMARK   60  A    between atoms: _143  and  _144
REMARK   61  A    between atoms: _143  and  _146
REMARK   62  A    between atoms: _146  and  _147
REMARK   63  A    between atoms: _147  and  _148
REMARK   64  A    between atoms: _151  and  _153
REMARK   65  A    between atoms: _153  and  _154
REMARK   66  A    between atoms: _153  and  _156
REMARK   67  A    between atoms: _156  and  _157
REMARK   68  A    between atoms: _157  and  _158
REMARK   69  A    between atoms: _158  and  _159
REMARK   70  A    between atoms: _159  and  _160
REMARK   71  A    between atoms: _164  and  _166
REMARK   72  A    between atoms: _166  and  _167
REMARK   73  A    between atoms: _166  and  _169
REMARK   74  A    between atoms: _172  and  _174
REMARK   75  A    between atoms: _174  and  _175
REMARK   76  A    between atoms: _174  and  _177
REMARK   77  A    between atoms: _177  and  _178
REMARK   78  A    between atoms: _180  and  _182
REMARK   79  A    between atoms: _182  and  _183
REMARK   80  A    between atoms: _182  and  _185
REMARK   81  A    between atoms: _185  and  _186
REMARK   82  A    between atoms: _188  and  _190
REMARK   83  A    between atoms: _190  and  _191
REMARK   84  A    between atoms: _190  and  _193
REMARK   85  A    between atoms: _193  and  _194
REMARK   86  A    between atoms: _200  and  _202
REMARK   87  A    between atoms: _202  and  _203
REMARK   88  A    between atoms: _202  and  _205
REMARK   89  A    between atoms: _205  and  _206
REMARK   90  A    between atoms: _209  and  _211
REMARK   91  A    between atoms: _211  and  _212
REMARK   92  A    between atoms: _211  and  _214
REMARK   93  A    between atoms: _214  and  _215
REMARK   94  A    between atoms: _218  and  _220
REMARK   95  A    between atoms: _220  and  _221
REMARK   96  A    between atoms: _220  and  _223
REMARK   97  A    between atoms: _223  and  _224
REMARK   98  A    between atoms: _227  and  _229
REMARK   99  A    between atoms: _229  and  _230
REMARK  100  A    between atoms: _229  and  _232
REMARK  101  A    between atoms: _232  and  _233
REMARK  102  A    between atoms: _233  and  _234
REMARK  103  A    between atoms: _236  and  _238
REMARK  104  A    between atoms: _238  and  _239
REMARK  105  A    between atoms: _238  and  _241
REMARK  106  A    between atoms: _241  and  _242
REMARK  107  A    between atoms: _248  and  _250
REMARK  108  A    between atoms: _250  and  _251
REMARK  109  A    between atoms: _250  and  _253
REMARK  110  A    between atoms: _255  and  _257
REMARK  111  A    between atoms: _257  and  _258
REMARK  112  A    between atoms: _261  and  _263
REMARK  113  A    between atoms: _263  and  _264
REMARK  114  A    between atoms: _266  and  _268
REMARK  115  A    between atoms: _268  and  _269
REMARK  116  A    between atoms: _268  and  _271
REMARK  117  A    between atoms: _271  and  _272
REMARK  118  A    between atoms: _272  and  _273
REMARK  119  A    between atoms: _276  and  _278
REMARK  120  A    between atoms: _278  and  _279
REMARK  121  A    between atoms: _278  and  _281
REMARK  122  A    between atoms: _281  and  _282
REMARK  123  A    between atoms: _285  and  _287
REMARK  124  A    between atoms: _287  and  _288
REMARK  125  A    between atoms: _291  and  _293
REMARK  126  A    between atoms: _293  and  _294
REMARK  127  A    between atoms: _293  and  _296
REMARK  128  A    between atoms: _296  and  _297
REMARK  129  A    between atoms: _297  and  _420
REMARK  130  A    between atoms: _298  and  _300
REMARK  131  A    between atoms: _300  and  _301
REMARK  132  A    between atoms: _300  and  _303
REMARK  133  A    between atoms: _303  and  _304
REMARK  134  A    between atoms: _304  and  _305
REMARK  135  A    between atoms: _310  and  _312
REMARK  136  A    between atoms: _312  and  _313
REMARK  137  A    between atoms: _315  and  _317
REMARK  138  A    between atoms: _317  and  _318
REMARK  139  A    between atoms: _317  and  _320
REMARK  140  A    between atoms: _320  and  _321
REMARK  141  A    between atoms: _324  and  _326
REMARK  142  A    between atoms: _326  and  _327
REMARK  143  A    between atoms: _326  and  _329
REMARK  144  A    between atoms: _329  and  _330
REMARK  145  A    between atoms: _332  and  _334
REMARK  146  A    between atoms: _334  and  _335
REMARK  147  A    between atoms: _337  and  _339
REMARK  148  A    between atoms: _339  and  _340
REMARK  149  A    between atoms: _342  and  _344
REMARK  150  A    between atoms: _344  and  _345
REMARK  151  A    between atoms: _344  and  _347
REMARK  152  A    between atoms: _347  and  _348
REMARK  153  A    between atoms: _353  and  _355
REMARK  154  A    between atoms: _355  and  _356
REMARK  155  A    between atoms: _355  and  _358
REMARK  156  A    between atoms: _358  and  _359
REMARK  157  A    between atoms: _362  and  _364
REMARK  158  A    between atoms: _364  and  _365
REMARK  159  A    between atoms: _364  and  _367
REMARK  160  A    between atoms: _370  and  _372
REMARK  161  A    between atoms: _372  and  _373
REMARK  162  A    between atoms: _372  and  _375
REMARK  163  A    between atoms: _375  and  _376
REMARK  164  A    between atoms: _378  and  _380
REMARK  165  A    between atoms: _380  and  _381
REMARK  166  A    between atoms: _380  and  _383
REMARK  167  A    between atoms: _383  and  _384
REMARK  168  A    between atoms: _394  and  _396
REMARK  169  A    between atoms: _396  and  _397
REMARK  170  A    between atoms: _399  and  _401
REMARK  171  A    between atoms: _401  and  _402
REMARK  172  A    between atoms: _401  and  _404
REMARK  173  A    between atoms: _404  and  _405
REMARK  174  A    between atoms: _405  and  _406
REMARK  175  A    between atoms: _409  and  _411
REMARK  176  A    between atoms: _411  and  _412
REMARK  177  A    between atoms: _414  and  _416
REMARK  178  A    between atoms: _416  and  _417
REMARK  179  A    between atoms: _416  and  _419
REMARK  180  A    between atoms: _419  and  _420
REMARK  181  A    between atoms: _421  and  _423
REMARK  182  A    between atoms: _423  and  _424
REMARK  183  A    between atoms: _427  and  _429
REMARK  184  A    between atoms: _429  and  _430
REMARK  185  A    between atoms: _429  and  _432
REMARK  186  A    between atoms: _432  and  _433
REMARK  187  A    between atoms: _433  and  _434
REMARK  188  A    between atoms: _434  and  _435
REMARK  189  A    between atoms: _444  and  _446
REMARK  190  A    between atoms: _446  and  _447
REMARK  191  A    between atoms: _446  and  _449
REMARK  192  A    between atoms: _449  and  _450
REMARK  193  A    between atoms: _450  and  _451
REMARK  194  A    between atoms: _451  and  _452
REMARK  195  A    between atoms: _452  and  _453
REMARK  196  A    between atoms: _457  and  _459
REMARK  197  A    between atoms: _459  and  _460
REMARK  198  A    between atoms: _459  and  _462
REMARK  199  A    between atoms: _462  and  _463
REMARK  200  A    between atoms: _468  and  _469
REMARK  201  A    between atoms: _471  and  _473
REMARK  202  A    between atoms: _473  and  _474
REMARK  203  A    between atoms: _476  and  _478
REMARK  204  A    between atoms: _478  and  _479
REMARK  205  A    between atoms: _478  and  _481
REMARK  206  A    between atoms: _481  and  _482
REMARK  207  A    between atoms: _485  and  _487
REMARK  208  A    between atoms: _487  and  _488
REMARK  209  A    between atoms: _487  and  _490
REMARK  210  A    between atoms: _490  and  _491
REMARK  211  A    between atoms: _496  and  _497
REMARK  212  A    between atoms: _499  and  _501
REMARK  213  A    between atoms: _501  and  _502
REMARK  214  A    between atoms: _501  and  _504
REMARK  215  A    between atoms: _504  and  _505
REMARK                            x       y       z     vdW  Elec       q    Type
REMARK                         _______ _______ _______ _____ _____    ______ ____
ROOT
ATOM      1  CB  HIS A   1       2.120   8.374  16.591  0.00  0.00    +0.072 C 
ENDROOT
BRANCH   1   2
ATOM      2  CG  HIS A   1       2.186   8.716  18.051  0.00  0.00    +0.082 A 
ATOM      3  ND1 HIS A   1       2.337   7.758  19.043  0.00  0.00    -0.227 NA
ATOM      4  CE1 HIS A   1       2.345   8.354  20.221  0.00  0.00    +0.199 A 
ATOM      5  NE2 HIS A   1       2.227   9.661  20.036  0.00  0.00    -0.221 NA
ATOM      6  CD2 HIS A   1       2.130   9.910  18.686  0.00  0.00    +0.115 A 
ENDBRANCH   1   2
BRANCH   1   7
ATOM      7  CA  HIS A   1       3.441   8.560  15.841  0.00  0.00    +0.139 C 
BRANCH   7   8
ATOM      8  N   HIS A   1       4.317   7.386  15.936  0.00  0.00    -0.239 NA
ATOM      9  H   HIS A   1       4.068   6.609  16.580  0.00  0.00    +0.142 HD
ENDBRANCH   7   8
BRANCH   7  10
ATOM     10  C   HIS A   1       4.129   9.862  16.252  0.00  0.00    +0.224 C 
ATOM     11  O   HIS A   1       3.742  10.927  15.774  0.00  0.00    -0.287 OA
ENDBRANCH   7  10
ENDBRANCH   1   7
TORSDOF 4
REMARK  Name = ../refined-set-2016/2vvv/2vvv_pocket.pdb
REMARK  215 active torsions:
REMARK  status: ('A' for Active; 'I' for Inactive)
REMARK    1  A    between atoms: _1  and  _5
REMARK    2  A    between atoms: _5  and  _6
REMARK    3  A    between atoms: _5  and  _8
REMARK    4  A    between atoms: _8  and  _9
REMARK    5  A    between atoms: _12  and  _14
REMARK    6  A    between atoms: _14  and  _15
REMARK    7  A    between atoms: _14  and  _17
REMARK    8  A    between atoms: _20  and  _22
REMARK    9  A    between atoms: _22  and  _23
REMARK   10  A    between atoms: _22  and  _25
REMARK   11  A    between atoms: _25  and  _26
REMARK   12  A    between atoms: _31  and  _33
REMARK   13  A    between atoms: _33  and  _34
REMARK   14  A    between atoms: _33  and  _36
REMARK   15  A    between atoms: _36  and  _37
REMARK   16  A    between atoms: _37  and  _38
REMARK   17  A    between atoms: _43  and  _45
REMARK   18  A    between atoms: _45  and  _46
REMARK   19  A    between atoms: _45  and  _48
REMARK   20  A    between atoms: _48  and  _49
REMARK   21  A    between atoms: _52  and  _54
REMARK   22  A    between atoms: _54  and  _55
REMARK   23  A    between atoms: _54  and  _57
REMARK   24  A    between atoms: _57  and  _58
REMARK   25  A    between atoms: _58  and  _59
REMARK   26  A    between atoms: _59  and  _60
REMARK   27  A    between atoms: _60  and  _61
REMARK   28  A    between atoms: _65  and  _67
REMARK   29  A    between atoms: _67  and  _68
REMARK   30  A    between atoms: _67  and  _70
REMARK   31  A    between atoms: _70  and  _71
REMARK   32  A    between atoms: _71  and  _72
REMARK   33  A    between atoms: _75  and  _77
REMARK   34  A    between atoms: _77  and  _78
REMARK   35  A    between atoms: _77  and  _80
REMARK   36  A    between atoms: _80  and  _81
REMARK   37  A    between atoms: _84  and  _86
REMARK   38  A    between atoms: _86  and  _87
REMARK   39  A    between atoms: _86  and  _89
REMARK   40  A    between atoms: _89  and  _90
REMARK   41  A    between atoms: _95  and  _96
REMARK   42  A    between atoms: _98  and  _100
REMARK   43  A    between atoms: _100  and  _101
REMARK   44  A    between atoms: _100  and  _103
REMARK   45  A    between atoms: _103  and  _104
REMARK   46  A    between atoms: _107  and  _109
REMARK   47  A    between atoms: _109  and  _110
REMARK   48  A    between atoms: _109  and  _112
REMARK   49  A    between atoms: _112  and  _113
REMARK   50  A    between atoms: _116  and  _118
REMARK   51  A    between atoms: _118  and  _119
REMARK   52  A    between atoms: _118  and  _121
REMARK   53  A    between atoms: _124  and  _126
REMARK   54  A    between atoms: _126  and  _127
REMARK   55  A    between atoms: _126  and  _129
REMARK   56  A    between atoms: _129  and  _130
REMARK   57  A    between atoms: _130  and  _131
REMARK   58  A    between atoms: _131  and  _132
REMARK   59  A    between atoms: _141  and  _143
REMARK   60  A    between atoms: _143  and  _144
REMARK   61  A    between atoms: _143  and  _146
REMARK   62  A    between atoms: _146  and  _147
REMARK   63  A    between atoms: _147  and  _148
REMARK   64  A    between atoms: _151  and  _153
REMARK   65  A    between atoms: _153  and  _154
REMARK   66  A    between atoms: _153  and  _156
REMARK   67  A    between atoms: _156  and  _157
REMARK   68  A    between atoms: _157  and  _158
REMARK   69  A    between atoms: _158  and  _159
REMARK   70  A    between atoms: _159  and  _160
REMARK   71  A    between atoms: _164  and  _166
REMARK   72  A    between atoms: _166  and  _167
REMARK   73  A    between atoms: _166  and  _169
REMARK   74  A    between atoms: _172  and  _174
REMARK   75  A    between atoms: _174  and  _175
REMARK   76  A    between atoms: _174  and  _177
REMARK   77  A    between atoms: _177  and  _178
REMARK   78  A    between atoms: _180  and  _182
REMARK   79  A    between atoms: _182  and  _183
REMARK   80  A    between atoms: _182  and  _185
REMARK   81  A    between atoms: _185  and  _186
REMARK   82  A    between atoms: _188  and  _190
REMARK   83  A    between atoms: _190  and  _191
REMARK   84  A    between atoms: _190  and  _193
REMARK   85  A    between atoms: _193  and  _194
REMARK   86  A    between atoms: _200  and  _202
REMARK   87  A    between atoms: _202  and  _203
REMARK   88  A    between atoms: _202  and  _205
REMARK   89  A    between atoms: _205  and  _206
REMARK   90  A    between atoms: _209  and  _211
REMARK   91  A    between atoms: _211  and  _212
REMARK   92  A    between atoms: _211  and  _214
REMARK   93  A    between atoms: _214  and  _215
REMARK   94  A    between atoms: _218  and  _220
REMARK   95  A    between atoms: _220  and  _221
REMARK   96  A    between atoms: _220  and  _223
REMARK   97  A    between atoms: _223  and  _224
REMARK   98  A    between atoms: _227  and  _229
REMARK   99  A    between atoms: _229  and  _230
REMARK  100  A    between atoms: _229  and  _232
REMARK  101  A    between atoms: _232  and  _233
REMARK  102  A    between atoms: _233  and  _234
REMARK  103  A    between atoms: _236  and  _238
REMARK  104  A    between atoms: _238  and  _239
REMARK  105  A    between atoms: _238  and  _241
REMARK  106  A    between atoms: _241  and  _242
REMARK  107  A    between atoms: _248  and  _250
REMARK  108  A    between atoms: _250  and  _251
REMARK  109  A    between atoms: _250  and  _253
REMARK  110  A    between atoms: _255  and  _257
REMARK  111  A    between atoms: _257  and  _258
REMARK  112  A    between atoms: _261  and  _263
REMARK  113  A    between atoms: _263  and  _264
REMARK  114  A    between atoms: _266  and  _268
REMARK  115  A    between atoms: _268  and  _269
REMARK  116  A    between atoms: _268  and  _271
REMARK  117  A    between atoms: _271  and  _272
REMARK  118  A    between atoms: _272  and  _273
REMARK  119  A    between atoms: _276  and  _278
REMARK  120  A    between atoms: _278  and  _279
REMARK  121  A    between atoms: _278  and  _281
REMARK  122  A    between atoms: _281  and  _282
REMARK  123  A    between atoms: _285  and  _287
REMARK  124  A    between atoms: _287  and  _288
REMARK  125  A    between atoms: _291  and  _293
REMARK  126  A    between atoms: _293  and  _294
REMARK  127  A    between atoms: _293  and  _296
REMARK  128  A    between atoms: _296  and  _297
REMARK  129  A    between atoms: _297  and  _420
REMARK  130  A    between atoms: _298  and  _300
REMARK  131  A    between atoms: _300  and  _301
REMARK  132  A    between atoms: _300  and  _303
REMARK  133  A    between atoms: _303  and  _304
REMARK  134  A    between atoms: _304  and  _305
REMARK  135  A    between atoms: _310  and  _312
REMARK  136  A    between atoms: _312  and  _313
REMARK  137  A    between atoms: _315  and  _317
REMARK  138  A    between atoms: _317  and  _318
REMARK  139  A    between atoms: _317  and  _320
REMARK  140  A    between atoms: _320  and  _321
REMARK  141  A    between atoms: _324  and  _326
REMARK  142  A    between atoms: _326  and  _327
REMARK  143  A    between atoms: _326  and  _329
REMARK  144  A    between atoms: _329  and  _330
REMARK  145  A    between atoms: _332  and  _334
REMARK  146  A    between atoms: _334  and  _335
REMARK  147  A    between atoms: _337  and  _339
REMARK  148  A    between atoms: _339  and  _340
REMARK  149  A    between atoms: _342  and  _344
REMARK  150  A    between atoms: _344  and  _345
REMARK  151  A    between atoms: _344  and  _347
REMARK  152  A    between atoms: _347  and  _348
REMARK  153  A    between atoms: _353  and  _355
REMARK  154  A    between atoms: _355  and  _356
REMARK  155  A    between atoms: _355  and  _358
REMARK  156  A    between atoms: _358  and  _359
REMARK  157  A    between atoms: _362  and  _364
REMARK  158  A    between atoms: _364  and  _365
REMARK  159  A    between atoms: _364  and  _367
REMARK  160  A    between atoms: _370  and  _372
REMARK  161  A    between atoms: _372  and  _373
REMARK  162  A    between atoms: _372  and  _375
REMARK  163  A    between atoms: _375  and  _376
REMARK  164  A    between atoms: _378  and  _380
REMARK  165  A    between atoms: _380  and  _381
REMARK  166  A    between atoms: _380  and  _383
REMARK  167  A    between atoms: _383  and  _384
REMARK  168  A    between atoms: _394  and  _396
REMARK  169  A    between atoms: _396  and  _397
REMARK  170  A    between atoms: _399  and  _401
REMARK  171  A    between atoms: _401  and  _402
REMARK  172  A    between atoms: _401  and  _404
REMARK  173  A    between atoms: _404  and  _405
REMARK  174  A    between atoms: _405  and  _406
REMARK  175  A    between atoms: _409  and  _411
REMARK  176  A    between atoms: _411  and  _412
REMARK  177  A    between atoms: _414  and  _416
REMARK  178  A    between atoms: _416  and  _417
REMARK  179  A    between atoms: _416  and  _419
REMARK  180  A    between atoms: _419  and  _420
REMARK  181  A    between atoms: _421  and  _423
REMARK  182  A    between atoms: _423  and  _424
REMARK  183  A    between atoms: _427  and  _429
REMARK  184  A    between atoms: _429  and  _430
REMARK  185  A    between atoms: _429  and  _432
REMARK  186  A    between atoms: _432  and  _433
REMARK  187  A    between atoms: _433  and  _434
REMARK  188  A    between atoms: _434  and  _435
REMARK  189  A    between atoms: _444  and  _446
REMARK  190  A    between atoms: _446  and  _447
REMARK  191  A    between atoms: _446  and  _449
REMARK  192  A    between atoms: _449  and  _450
REMARK  193  A    between atoms: _450  and  _451
REMARK  194  A    between atoms: _451  and  _452
REMARK  195  A    between atoms: _452  and  _453
REMARK  196  A    between atoms: _457  and  _459
REMARK  197  A    between atoms: _459  and  _460
REMARK  198  A    between atoms: _459  and  _462
REMARK  199  A    between atoms: _462  and  _463
REMARK  200  A    between atoms: _468  and  _469
REMARK  201  A    between atoms: _471  and  _473
REMARK  202  A    between atoms: _473  and  _474
REMARK  203  A    between atoms: _476  and  _478
REMARK  204  A    between atoms: _478  and  _479
REMARK  205  A    between atoms: _478  and  _481
REMARK  206  A    between atoms: _481  and  _482
REMARK  207  A    between atoms: _485  and  _487
REMARK  208  A    between atoms: _487  and  _488
REMARK  209  A    between atoms: _487  and  _490
REMARK  210  A    between atoms: _490  and  _491
REMARK  211  A    between atoms: _496  and  _497
REMARK  212  A    between atoms: _499  and  _501
REMARK  213  A    between atoms: _501  and  _502
REMARK  214  A    between atoms: _501  and  _504
REMARK  215  A    between atoms: _504  and  _505
REMARK                            x       y       z     vdW  Elec       q    Type
REMARK                         _______ _______ _______ _____ _____    ______ ____
ROOT
ATOM      1  CB  GLN A   1       4.322  15.272  16.923  0.00  0.00    +0.035 C 
ENDROOT
BRANCH   1   2
ATOM      2  CA  GLN A   1       4.606  15.757  15.504  0.00  0.00    +0.134 C 
BRANCH   2   3
ATOM      3  N   GLN A   1       4.932  14.630  14.648  0.00  0.00    -0.239 NA
ATOM      4  H   GLN A   1       5.640  13.936  14.961  0.00  0.00    +0.142 HD
ENDBRANCH   2   3
BRANCH   2   5
ATOM      5  C   GLN A   1       5.661  16.856  15.455  0.00  0.00    +0.224 C 
ATOM      6  O   GLN A   1       5.421  17.994  15.880  0.00  0.00    -0.287 OA
ENDBRANCH   2   5
ENDBRANCH   1   2
BRANCH   1   7
ATOM      7  CG  GLN A   1       2.842  14.972  17.118  0.00  0.00    +0.087 C 
BRANCH   7   8
ATOM      8  CD  GLN A   1       2.562  13.655  17.827  0.00  0.00    +0.219 C 
ATOM      9  OE1 GLN A   1       3.187  13.325  18.838  0.00  0.00    -0.275 OA
ATOM     10  NE2 GLN A   1       1.601  12.900  17.295  0.00  0.00    -0.329 N 
ATOM     11 HE21 GLN A   1       1.351  11.991  17.734  0.00  0.00    +0.145 HD
ATOM     12 HE22 GLN A   1       1.101  13.220  16.441  0.00  0.00    +0.145 HD
ENDBRANCH   7   8
ENDBRANCH   1   7
TORSDOF 5
REMARK  Name = ../refined-set-2016/2vvv/2vvv_pocket.pdb
REMARK  215 active torsions:
REMARK  status: ('A' for Active; 'I' for Inactive)
REMARK    1  A    between atoms: _1  and  _5
REMARK    2  A    between atoms: _5  and  _6
REMARK    3  A    between atoms: _5  and  _8
REMARK    4  A    between atoms: _8  and  _9
REMARK    5  A    between atoms: _12  and  _14
REMARK    6  A    between atoms: _14  and  _15
REMARK    7  A    between atoms: _14  and  _17
REMARK    8  A    between atoms: _20  and  _22
REMARK    9  A    between atoms: _22  and  _23
REMARK   10  A    between atoms: _22  and  _25
REMARK   11  A    between atoms: _25  and  _26
REMARK   12  A    between atoms: _31  and  _33
REMARK   13  A    between atoms: _33  and  _34
REMARK   14  A    between atoms: _33  and  _36
REMARK   15  A    between atoms: _36  and  _37
REMARK   16  A    between atoms: _37  and  _38
REMARK   17  A    between atoms: _43  and  _45
REMARK   18  A    between atoms: _45  and  _46
REMARK   19  A    between atoms: _45  and  _48
REMARK   20  A    between atoms: _48  and  _49
REMARK   21  A    between atoms: _52  and  _54
REMARK   22  A    between atoms: _54  and  _55
REMARK   23  A    between atoms: _54  and  _57
REMARK   24  A    between atoms: _57  and  _58
REMARK   25  A    between atoms: _58  and  _59
REMARK   26  A    between atoms: _59  and  _60
REMARK   27  A    between atoms: _60  and  _61
REMARK   28  A    between atoms: _65  and  _67
REMARK   29  A    between atoms: _67  and  _68
REMARK   30  A    between atoms: _67  and  _70
REMARK   31  A    between atoms: _70  and  _71
REMARK   32  A    between atoms: _71  and  _72
REMARK   33  A    between atoms: _75  and  _77
REMARK   34  A    between atoms: _77  and  _78
REMARK   35  A    between atoms: _77  and  _80
REMARK   36  A    between atoms: _80  and  _81
REMARK   37  A    between atoms: _84  and  _86
REMARK   38  A    between atoms: _86  and  _87
REMARK   39  A    between atoms: _86  and  _89
REMARK   40  A    between atoms: _89  and  _90
REMARK   41  A    between atoms: _95  and  _96
REMARK   42  A    between atoms: _98  and  _100
REMARK   43  A    between atoms: _100  and  _101
REMARK   44  A    between atoms: _100  and  _103
REMARK   45  A    between atoms: _103  and  _104
REMARK   46  A    between atoms: _107  and  _109
REMARK   47  A    between atoms: _109  and  _110
REMARK   48  A    between atoms: _109  and  _112
REMARK   49  A    between atoms: _112  and  _113
REMARK   50  A    between atoms: _116  and  _118
REMARK   51  A    between atoms: _118  and  _119
REMARK   52  A    between atoms: _118  and  _121
REMARK   53  A    between atoms: _124  and  _126
REMARK   54  A    between atoms: _126  and  _127
REMARK   55  A    between atoms: _126  and  _129
REMARK   56  A    between atoms: _129  and  _130
REMARK   57  A    between atoms: _130  and  _131
REMARK   58  A    between atoms: _131  and  _132
REMARK   59  A    between atoms: _141  and  _143
REMARK   60  A    between atoms: _143  and  _144
REMARK   61  A    between atoms: _143  and  _146
REMARK   62  A    between atoms: _146  and  _147
REMARK   63  A    between atoms: _147  and  _148
REMARK   64  A    between atoms: _151  and  _153
REMARK   65  A    between atoms: _153  and  _154
REMARK   66  A    between atoms: _153  and  _156
REMARK   67  A    between atoms: _156  and  _157
REMARK   68  A    between atoms: _157  and  _158
REMARK   69  A    between atoms: _158  and  _159
REMARK   70  A    between atoms: _159  and  _160
REMARK   71  A    between atoms: _164  and  _166
REMARK   72  A    between atoms: _166  and  _167
REMARK   73  A    between atoms: _166  and  _169
REMARK   74  A    between atoms: _172  and  _174
REMARK   75  A    between atoms: _174  and  _175
REMARK   76  A    between atoms: _174  and  _177
REMARK   77  A    between atoms: _177  and  _178
REMARK   78  A    between atoms: _180  and  _182
REMARK   79  A    between atoms: _182  and  _183
REMARK   80  A    between atoms: _182  and  _185
REMARK   81  A    between atoms: _185  and  _186
REMARK   82  A    between atoms: _188  and  _190
REMARK   83  A    between atoms: _190  and  _191
REMARK   84  A    between atoms: _190  and  _193
REMARK   85  A    between atoms: _193  and  _194
REMARK   86  A    between atoms: _200  and  _202
REMARK   87  A    between atoms: _202  and  _203
REMARK   88  A    between atoms: _202  and  _205
REMARK   89  A    between atoms: _205  and  _206
REMARK   90  A    between atoms: _209  and  _211
REMARK   91  A    between atoms: _211  and  _212
REMARK   92  A    between atoms: _211  and  _214
REMARK   93  A    between atoms: _214  and  _215
REMARK   94  A    between atoms: _218  and  _220
REMARK   95  A    between atoms: _220  and  _221
REMARK   96  A    between atoms: _220  and  _223
REMARK   97  A    between atoms: _223  and  _224
REMARK   98  A    between atoms: _227  and  _229
REMARK   99  A    between atoms: _229  and  _230
REMARK  100  A    between atoms: _229  and  _232
REMARK  101  A    between atoms: _232  and  _233
REMARK  102  A    between atoms: _233  and  _234
REMARK  103  A    between atoms: _236  and  _238
REMARK  104  A    between atoms: _238  and  _239
REMARK  105  A    between atoms: _238  and  _241
REMARK  106  A    between atoms: _241  and  _242
REMARK  107  A    between atoms: _248  and  _250
REMARK  108  A    between atoms: _250  and  _251
REMARK  109  A    between atoms: _250  and  _253
REMARK  110  A    between atoms: _255  and  _257
REMARK  111  A    between atoms: _257  and  _258
REMARK  112  A    between atoms: _261  and  _263
REMARK  113  A    between atoms: _263  and  _264
REMARK  114  A    between atoms: _266  and  _268
REMARK  115  A    between atoms: _268  and  _269
REMARK  116  A    between atoms: _268  and  _271
REMARK  117  A    between atoms: _271  and  _272
REMARK  118  A    between atoms: _272  and  _273
REMARK  119  A    between atoms: _276  and  _278
REMARK  120  A    between atoms: _278  and  _279
REMARK  121  A    between atoms: _278  and  _281
REMARK  122  A    between atoms: _281  and  _282
REMARK  123  A    between atoms: _285  and  _287
REMARK  124  A    between atoms: _287  and  _288
REMARK  125  A    between atoms: _291  and  _293
REMARK  126  A    between atoms: _293  and  _294
REMARK  127  A    between atoms: _293  and  _296
REMARK  128  A    between atoms: _296  and  _297
REMARK  129  A    between atoms: _297  and  _420
REMARK  130  A    between atoms: _298  and  _300
REMARK  131  A    between atoms: _300  and  _301
REMARK  132  A    between atoms: _300  and  _303
REMARK  133  A    between atoms: _303  and  _304
REMARK  134  A    between atoms: _304  and  _305
REMARK  135  A    between atoms: _310  and  _312
REMARK  136  A    between atoms: _312  and  _313
REMARK  137  A    between atoms: _315  and  _317
REMARK  138  A    between atoms: _317  and  _318
REMARK  139  A    between atoms: _317  and  _320
REMARK  140  A    between atoms: _320  and  _321
REMARK  141  A    between atoms: _324  and  _326
REMARK  142  A    between atoms: _326  and  _327
REMARK  143  A    between atoms: _326  and  _329
REMARK  144  A    between atoms: _329  and  _330
REMARK  145  A    between atoms: _332  and  _334
REMARK  146  A    between atoms: _334  and  _335
REMARK  147  A    between atoms: _337  and  _339
REMARK  148  A    between atoms: _339  and  _340
REMARK  149  A    between atoms: _342  and  _344
REMARK  150  A    between atoms: _344  and  _345
REMARK  151  A    between atoms: _344  and  _347
REMARK  152  A    between atoms: _347  and  _348
REMARK  153  A    between atoms: _353  and  _355
REMARK  154  A    between atoms: _355  and  _356
REMARK  155  A    between atoms: _355  and  _358
REMARK  156  A    between atoms: _358  and  _359
REMARK  157  A    between atoms: _362  and  _364
REMARK  158  A    between atoms: _364  and  _365
REMARK  159  A    between atoms: _364  and  _367
REMARK  160  A    between atoms: _370  and  _372
REMARK  161  A    between atoms: _372  and  _373
REMARK  162  A    between atoms: _372  and  _375
REMARK  163  A    between atoms: _375  and  _376
REMARK  164  A    between atoms: _378  and  _380
REMARK  165  A    between atoms: _380  and  _381
REMARK  166  A    between atoms: _380  and  _383
REMARK  167  A    between atoms: _383  and  _384
REMARK  168  A    between atoms: _394  and  _396
REMARK  169  A    between atoms: _396  and  _397
REMARK  170  A    between atoms: _399  and  _401
REMARK  171  A    between atoms: _401  and  _402
REMARK  172  A    between atoms: _401  and  _404
REMARK  173  A    between atoms: _404  and  _405
REMARK  174  A    between atoms: _405  and  _406
REMARK  175  A    between atoms: _409  and  _411
REMARK  176  A    between atoms: _411  and  _412
REMARK  177  A    between atoms: _414  and  _416
REMARK  178  A    between atoms: _416  and  _417
REMARK  179  A    between atoms: _416  and  _419
REMARK  180  A    between atoms: _419  and  _420
REMARK  181  A    between atoms: _421  and  _423
REMARK  182  A    between atoms: _423  and  _424
REMARK  183  A    between atoms: _427  and  _429
REMARK  184  A    between atoms: _429  and  _430
REMARK  185  A    between atoms: _429  and  _432
REMARK  186  A    between atoms: _432  and  _433
REMARK  187  A    between atoms: _433  and  _434
REMARK  188  A    between atoms: _434  and  _435
REMARK  189  A    between atoms: _444  and  _446
REMARK  190  A    between atoms: _446  and  _447
REMARK  191  A    between atoms: _446  and  _449
REMARK  192  A    between atoms: _449  and  _450
REMARK  193  A    between atoms: _450  and  _451
REMARK  194  A    between atoms: _451  and  _452
REMARK  195  A    between atoms: _452  and  _453
REMARK  196  A    between atoms: _457  and  _459
REMARK  197  A    between atoms: _459  and  _460
REMARK  198  A    between atoms: _459  and  _462
REMARK  199  A    between atoms: _462  and  _463
REMARK  200  A    between atoms: _468  and  _469
REMARK  201  A    between atoms: _471  and  _473
REMARK  202  A    between atoms: _473  and  _474
REMARK  203  A    between atoms: _476  and  _478
REMARK  204  A    between atoms: _478  and  _479
REMARK  205  A    between atoms: _478  and  _481
REMARK  206  A    between atoms: _481  and  _482
REMARK  207  A    between atoms: _485  and  _487
REMARK  208  A    between atoms: _487  and  _488
REMARK  209  A    between atoms: _487  and  _490
REMARK  210  A    between atoms: _490  and  _491
REMARK  211  A    between atoms: _496  and  _497
REMARK  212  A    between atoms: _499  and  _501
REMARK  213  A    between atoms: _501  and  _502
REMARK  214  A    between atoms: _501  and  _504
REMARK  215  A    between atoms: _504  and  _505
REMARK                            x       y       z     vdW  Elec       q    Type
REMARK                         _______ _______ _______ _____ _____    ______ ____
ROOT
ATOM      1  C   GLU A   3      -5.975   4.546  12.260  0.00  0.00    +0.241 C 
ATOM      2  O   GLU A   3      -7.104   4.486  12.754  0.00  0.00    -0.273 OA
ATOM      3  N   THR A   4      -4.977   3.724  12.594  0.00  0.00    -0.295 N 
ATOM      4  H   THR A   4      -4.035   3.899  12.190  0.00  0.00    +0.150 HD
ENDROOT
BRANCH   3   5
ATOM      5  CA  THR A   4      -5.145   2.591  13.499  0.00  0.00    +0.176 C 
BRANCH   5   6
ATOM      6  C   THR A   4      -4.263   2.721  14.739  0.00  0.00    +0.243 C 
ATOM      7  O   THR A   4      -4.542   2.104  15.780  0.00  0.00    -0.273 OA
ATOM      8  N   TYR A   5      -3.205   3.516  14.610  0.00  0.00    -0.297 N 
ATOM      9  H   TYR A   5      -3.103   4.083  13.744  0.00  0.00    +0.150 HD
BRANCH   8  10
ATOM     10  CA  TYR A   5      -2.163   3.620  15.666  0.00  0.00    +0.153 C 
BRANCH  10  11
ATOM     11  C   TYR A   5      -1.490   2.296  15.954  0.00  0.00    +0.241 C 
ATOM     12  O   TYR A   5      -0.716   2.140  16.938  0.00  0.00    -0.273 OA
ATOM     13  N   ASP A   6      -1.729   1.341  15.064  0.00  0.00    -0.298 N 
ATOM     14  H   ASP A   6      -2.367   1.540  14.267  0.00  0.00    +0.150 HD
BRANCH  13  15
ATOM     15  CA  ASP A   6      -1.123   0.024  15.172  0.00  0.00    +0.148 C 
BRANCH  15  16
ATOM     16  C   ASP A   6       0.362   0.110  14.818  0.00  0.00    +0.227 C 
ATOM     17  O   ASP A   6       0.752   1.022  14.108  0.00  0.00    -0.286 OA
ENDBRANCH  15  16
BRANCH  15  18
ATOM     18  CB  ASP A   6      -1.847  -0.941  14.231  0.00  0.00    +0.142 C 
BRANCH  18  19
ATOM     19  CG  ASP A   6      -1.704  -2.396  14.655  0.00  0.00    +0.367 C 
ATOM     20  OD2 ASP A   6      -1.170  -2.660  15.761  0.00  0.00    -0.246 OA
ATOM     21  OD1 ASP A   6      -2.135  -3.287  13.862  0.00  0.00    -0.246 OA
ENDBRANCH  18  19
ENDBRANCH  15  18
ENDBRANCH  13  15
ENDBRANCH  10  11
BRANCH  10  22
ATOM     22  CB  TYR A   5      -2.717   4.267  16.932  0.00  0.00    +0.055 C 
BRANCH  22  23
ATOM     23  CG  TYR A   5      -2.355   5.715  17.021  0.00  0.00    -0.020 A 
ATOM     24  CD2 TYR A   5      -1.497   6.169  18.005  0.00  0.00    -0.001 A 
ATOM     25  CE2 TYR A   5      -1.161   7.507  18.097  0.00  0.00    +0.036 A 
ATOM     26  CZ  TYR A   5      -1.663   8.377  17.166  0.00  0.00    +0.134 A 
ATOM     27  CE1 TYR A   5      -2.506   7.949  16.171  0.00  0.00    +0.036 A 
ATOM     28  CD1 TYR A   5      -2.846   6.627  16.101  0.00  0.00    -0.001 A 
BRANCH  26  29
ATOM     29  OH  TYR A   5      -1.321   9.689  17.234  0.00  0.00    -0.506 OA
ATOM     30  HH  TYR A   5      -1.614  10.061  18.103  0.00  0.00    +0.292 HD
ENDBRANCH  26  29
ENDBRANCH  22  23
ENDBRANCH  10  22
ENDBRANCH   8  10
ENDBRANCH   5   6
BRANCH   5  31
ATOM     31  CB  THR A   4      -4.738   1.297  12.843  0.00  0.00    +0.137 C 
ATOM     32  CG2 THR A   4      -5.598   1.032  11.601  0.00  0.00    +0.034 C 
BRANCH  31  33
ATOM     33  OG1 THR A   4      -3.356   1.385  12.461  0.00  0.00    -0.382 OA
ATOM     34  HG1 THR A   4      -3.080   0.538  12.029  0.00  0.00    +0.210 HD
ENDBRANCH  31  33
ENDBRANCH   5  31
ENDBRANCH   3   5
BRANCH   1  35
ATOM     35  CA  GLU A   3      -5.645   5.611  11.228  0.00  0.00    +0.149 C 
BRANCH  35  38
ATOM     36  C   LYS A   2      -3.694   6.715  12.157  0.00  0.00    +0.241 C 
ATOM     37  O   LYS A   2      -4.345   7.104  13.130  0.00  0.00    -0.273 OA
ATOM     38  N   GLU A   3      -4.226   5.953  11.203  0.00  0.00    -0.297 N 
ATOM     39  H   GLU A   3      -3.624   5.598  10.432  0.00  0.00    +0.150 HD
BRANCH  36  40
ATOM     40  CA  LYS A   2      -2.212   7.068  12.017  0.00  0.00    +0.149 C 
BRANCH  40  43
ATOM     41  C   THR A   1      -1.297   4.930  11.364  0.00  0.00    +0.241 C 
ATOM     42  O   THR A   1      -1.713   4.381  12.386  0.00  0.00    -0.274 OA
ATOM     43  N   LYS A   2      -1.521   6.202  11.083  0.00  0.00    -0.297 N 
ATOM     44  H   LYS A   2      -1.195   6.589  10.174  0.00  0.00    +0.150 HD
BRANCH  41  45
ATOM     45  CA  THR A   1      -0.516   4.167  10.326  0.00  0.00    +0.172 C 
BRANCH  45  46
ATOM     46  CB  THR A   1      -1.501   3.490   9.361  0.00  0.00    +0.135 C 
ATOM     47  CG2 THR A   1      -1.746   2.052   9.767  0.00  0.00    +0.034 C 
BRANCH  46  48
ATOM     48  OG1 THR A   1      -2.743   4.181   9.420  0.00  0.00    -0.383 OA
ATOM     49  HG1 THR A   1      -2.607   5.125   9.155  0.00  0.00    +0.210 HD
ENDBRANCH  46  48
ENDBRANCH  45  46
BRANCH  45  50
ATOM     50  N   THR A   1       0.344   3.212  10.970  0.00  0.00    -0.236 NA
ATOM     51  H   THR A   1       0.032   2.763  11.855  0.00  0.00    +0.142 HD
ENDBRANCH  45  50
ENDBRANCH  41  45
ENDBRANCH  40  43
BRANCH  40  52
ATOM     52  CB  LYS A   2      -2.028   8.524  11.593  0.00  0.00    +0.029 C 
BRANCH  52  53
ATOM     53  CG  LYS A   2      -2.430   9.508  12.656  0.00  0.00    +0.000 C 
BRANCH  53  54
ATOM     54  CD  LYS A   2      -2.149  10.935  12.221  0.00  0.00    -0.024 C 
BRANCH  54  55
ATOM     55  CE  LYS A   2      -0.781  11.381  12.690  0.00  0.00    -0.086 C 
BRANCH  55  56
ATOM     56  NZ  LYS A   2      -0.492  12.787  12.255  0.00  0.00    +0.380 N 
ATOM     57  HZ1 LYS A   2      -1.207  13.427  12.657  0.00  0.00    -0.089 HD
ATOM     58  HZ2 LYS A   2       0.452  13.065  12.591  0.00  0.00    -0.089 HD
ATOM     59  HZ3 LYS A   2      -0.522  12.840  11.217  0.00  0.00    -0.089 HD
ENDBRANCH  55  56
ENDBRANCH  54  55
ENDBRANCH  53  54
ENDBRANCH  52  53
ENDBRANCH  40  52
ENDBRANCH  36  40
ENDBRANCH  35  38
BRANCH  35  60
ATOM     60  CB  GLU A   3      -6.133   5.170   9.837  0.00  0.00    +0.041 C 
BRANCH  60  61
ATOM     61  CG  GLU A   3      -6.285   6.326   8.841  0.00  0.00    +0.116 C 
BRANCH  61  62
ATOM     62  CD  GLU A   3      -4.955   6.961   8.452  0.00  0.00    +0.365 C 
ATOM     63  OE2 GLU A   3      -4.863   8.213   8.444  0.00  0.00    -0.246 OA
ATOM     64  OE1 GLU A   3      -4.002   6.210   8.151  0.00  0.00    -0.246 OA
ENDBRANCH  61  62
ENDBRANCH  60  61
ENDBRANCH  35  60
ENDBRANCH   1  35
TORSDOF 29
REMARK  Name = ../refined-set-2016/2vvv/2vvv_pocket.pdb
REMARK  215 active torsions:
REMARK  status: ('A' for Active; 'I' for Inactive)
REMARK    1  A    between atoms: _1  and  _5
REMARK    2  A    between atoms: _5  and  _6
REMARK    3  A    between atoms: _5  and  _8
REMARK    4  A    between atoms: _8  and  _9
REMARK    5  A    between atoms: _12  and  _14
REMARK    6  A    between atoms: _14  and  _15
REMARK    7  A    between atoms: _14  and  _17
REMARK    8  A    between atoms: _20  and  _22
REMARK    9  A    between atoms: _22  and  _23
REMARK   10  A    between atoms: _22  and  _25
REMARK   11  A    between atoms: _25  and  _26
REMARK   12  A    between atoms: _31  and  _33
REMARK   13  A    between atoms: _33  and  _34
REMARK   14  A    between atoms: _33  and  _36
REMARK   15  A    between atoms: _36  and  _37
REMARK   16  A    between atoms: _37  and  _38
REMARK   17  A    between atoms: _43  and  _45
REMARK   18  A    between atoms: _45  and  _46
REMARK   19  A    between atoms: _45  and  _48
REMARK   20  A    between atoms: _48  and  _49
REMARK   21  A    between atoms: _52  and  _54
REMARK   22  A    between atoms: _54  and  _55
REMARK   23  A    between atoms: _54  and  _57
REMARK   24  A    between atoms: _57  and  _58
REMARK   25  A    between atoms: _58  and  _59
REMARK   26  A    between atoms: _59  and  _60
REMARK   27  A    between atoms: _60  and  _61
REMARK   28  A    between atoms: _65  and  _67
REMARK   29  A    between atoms: _67  and  _68
REMARK   30  A    between atoms: _67  and  _70
REMARK   31  A    between atoms: _70  and  _71
REMARK   32  A    between atoms: _71  and  _72
REMARK   33  A    between atoms: _75  and  _77
REMARK   34  A    between atoms: _77  and  _78
REMARK   35  A    between atoms: _77  and  _80
REMARK   36  A    between atoms: _80  and  _81
REMARK   37  A    between atoms: _84  and  _86
REMARK   38  A    between atoms: _86  and  _87
REMARK   39  A    between atoms: _86  and  _89
REMARK   40  A    between atoms: _89  and  _90
REMARK   41  A    between atoms: _95  and  _96
REMARK   42  A    between atoms: _98  and  _100
REMARK   43  A    between atoms: _100  and  _101
REMARK   44  A    between atoms: _100  and  _103
REMARK   45  A    between atoms: _103  and  _104
REMARK   46  A    between atoms: _107  and  _109
REMARK   47  A    between atoms: _109  and  _110
REMARK   48  A    between atoms: _109  and  _112
REMARK   49  A    between atoms: _112  and  _113
REMARK   50  A    between atoms: _116  and  _118
REMARK   51  A    between atoms: _118  and  _119
REMARK   52  A    between atoms: _118  and  _121
REMARK   53  A    between atoms: _124  and  _126
REMARK   54  A    between atoms: _126  and  _127
REMARK   55  A    between atoms: _126  and  _129
REMARK   56  A    between atoms: _129  and  _130
REMARK   57  A    between atoms: _130  and  _131
REMARK   58  A    between atoms: _131  and  _132
REMARK   59  A    between atoms: _141  and  _143
REMARK   60  A    between atoms: _143  and  _144
REMARK   61  A    between atoms: _143  and  _146
REMARK   62  A    between atoms: _146  and  _147
REMARK   63  A    between atoms: _147  and  _148
REMARK   64  A    between atoms: _151  and  _153
REMARK   65  A    between atoms: _153  and  _154
REMARK   66  A    between atoms: _153  and  _156
REMARK   67  A    between atoms: _156  and  _157
REMARK   68  A    between atoms: _157  and  _158
REMARK   69  A    between atoms: _158  and  _159
REMARK   70  A    between atoms: _159  and  _160
REMARK   71  A    between atoms: _164  and  _166
REMARK   72  A    between atoms: _166  and  _167
REMARK   73  A    between atoms: _166  and  _169
REMARK   74  A    between atoms: _172  and  _174
REMARK   75  A    between atoms: _174  and  _175
REMARK   76  A    between atoms: _174  and  _177
REMARK   77  A    between atoms: _177  and  _178
REMARK   78  A    between atoms: _180  and  _182
REMARK   79  A    between atoms: _182  and  _183
REMARK   80  A    between atoms: _182  and  _185
REMARK   81  A    between atoms: _185  and  _186
REMARK   82  A    between atoms: _188  and  _190
REMARK   83  A    between atoms: _190  and  _191
REMARK   84  A    between atoms: _190  and  _193
REMARK   85  A    between atoms: _193  and  _194
REMARK   86  A    between atoms: _200  and  _202
REMARK   87  A    between atoms: _202  and  _203
REMARK   88  A    between atoms: _202  and  _205
REMARK   89  A    between atoms: _205  and  _206
REMARK   90  A    between atoms: _209  and  _211
REMARK   91  A    between atoms: _211  and  _212
REMARK   92  A    between atoms: _211  and  _214
REMARK   93  A    between atoms: _214  and  _215
REMARK   94  A    between atoms: _218  and  _220
REMARK   95  A    between atoms: _220  and  _221
REMARK   96  A    between atoms: _220  and  _223
REMARK   97  A    between atoms: _223  and  _224
REMARK   98  A    between atoms: _227  and  _229
REMARK   99  A    between atoms: _229  and  _230
REMARK  100  A    between atoms: _229  and  _232
REMARK  101  A    between atoms: _232  and  _233
REMARK  102  A    between atoms: _233  and  _234
REMARK  103  A    between atoms: _236  and  _238
REMARK  104  A    between atoms: _238  and  _239
REMARK  105  A    between atoms: _238  and  _241
REMARK  106  A    between atoms: _241  and  _242
REMARK  107  A    between atoms: _248  and  _250
REMARK  108  A    between atoms: _250  and  _251
REMARK  109  A    between atoms: _250  and  _253
REMARK  110  A    between atoms: _255  and  _257
REMARK  111  A    between atoms: _257  and  _258
REMARK  112  A    between atoms: _261  and  _263
REMARK  113  A    between atoms: _263  and  _264
REMARK  114  A    between atoms: _266  and  _268
REMARK  115  A    between atoms: _268  and  _269
REMARK  116  A    between atoms: _268  and  _271
REMARK  117  A    between atoms: _271  and  _272
REMARK  118  A    between atoms: _272  and  _273
REMARK  119  A    between atoms: _276  and  _278
REMARK  120  A    between atoms: _278  and  _279
REMARK  121  A    between atoms: _278  and  _281
REMARK  122  A    between atoms: _281  and  _282
REMARK  123  A    between atoms: _285  and  _287
REMARK  124  A    between atoms: _287  and  _288
REMARK  125  A    between atoms: _291  and  _293
REMARK  126  A    between atoms: _293  and  _294
REMARK  127  A    between atoms: _293  and  _296
REMARK  128  A    between atoms: _296  and  _297
REMARK  129  A    between atoms: _297  and  _420
REMARK  130  A    between atoms: _298  and  _300
REMARK  131  A    between atoms: _300  and  _301
REMARK  132  A    between atoms: _300  and  _303
REMARK  133  A    between atoms: _303  and  _304
REMARK  134  A    between atoms: _304  and  _305
REMARK  135  A    between atoms: _310  and  _312
REMARK  136  A    between atoms: _312  and  _313
REMARK  137  A    between atoms: _315  and  _317
REMARK  138  A    between atoms: _317  and  _318
REMARK  139  A    between atoms: _317  and  _320
REMARK  140  A    between atoms: _320  and  _321
REMARK  141  A    between atoms: _324  and  _326
REMARK  142  A    between atoms: _326  and  _327
REMARK  143  A    between atoms: _326  and  _329
REMARK  144  A    between atoms: _329  and  _330
REMARK  145  A    between atoms: _332  and  _334
REMARK  146  A    between atoms: _334  and  _335
REMARK  147  A    between atoms: _337  and  _339
REMARK  148  A    between atoms: _339  and  _340
REMARK  149  A    between atoms: _342  and  _344
REMARK  150  A    between atoms: _344  and  _345
REMARK  151  A    between atoms: _344  and  _347
REMARK  152  A    between atoms: _347  and  _348
REMARK  153  A    between atoms: _353  and  _355
REMARK  154  A    between atoms: _355  and  _356
REMARK  155  A    between atoms: _355  and  _358
REMARK  156  A    between atoms: _358  and  _359
REMARK  157  A    between atoms: _362  and  _364
REMARK  158  A    between atoms: _364  and  _365
REMARK  159  A    between atoms: _364  and  _367
REMARK  160  A    between atoms: _370  and  _372
REMARK  161  A    between atoms: _372  and  _373
REMARK  162  A    between atoms: _372  and  _375
REMARK  163  A    between atoms: _375  and  _376
REMARK  164  A    between atoms: _378  and  _380
REMARK  165  A    between atoms: _380  and  _381
REMARK  166  A    between atoms: _380  and  _383
REMARK  167  A    between atoms: _383  and  _384
REMARK  168  A    between atoms: _394  and  _396
REMARK  169  A    between atoms: _396  and  _397
REMARK  170  A    between atoms: _399  and  _401
REMARK  171  A    between atoms: _401  and  _402
REMARK  172  A    between atoms: _401  and  _404
REMARK  173  A    between atoms: _404  and  _405
REMARK  174  A    between atoms: _405  and  _406
REMARK  175  A    between atoms: _409  and  _411
REMARK  176  A    between atoms: _411  and  _412
REMARK  177  A    between atoms: _414  and  _416
REMARK  178  A    between atoms: _416  and  _417
REMARK  179  A    between atoms: _416  and  _419
REMARK  180  A    between atoms: _419  and  _420
REMARK  181  A    between atoms: _421  and  _423
REMARK  182  A    between atoms: _423  and  _424
REMARK  183  A    between atoms: _427  and  _429
REMARK  184  A    between atoms: _429  and  _430
REMARK  185  A    between atoms: _429  and  _432
REMARK  186  A    between atoms: _432  and  _433
REMARK  187  A    between atoms: _433  and  _434
REMARK  188  A    between atoms: _434  and  _435
REMARK  189  A    between atoms: _444  and  _446
REMARK  190  A    between atoms: _446  and  _447
REMARK  191  A    between atoms: _446  and  _449
REMARK  192  A    between atoms: _449  and  _450
REMARK  193  A    between atoms: _450  and  _451
REMARK  194  A    between atoms: _451  and  _452
REMARK  195  A    between atoms: _452  and  _453
REMARK  196  A    between atoms: _457  and  _459
REMARK  197  A    between atoms: _459  and  _460
REMARK  198  A    between atoms: _459  and  _462
REMARK  199  A    between atoms: _462  and  _463
REMARK  200  A    between atoms: _468  and  _469
REMARK  201  A    between atoms: _471  and  _473
REMARK  202  A    between atoms: _473  and  _474
REMARK  203  A    between atoms: _476  and  _478
REMARK  204  A    between atoms: _478  and  _479
REMARK  205  A    between atoms: _478  and  _481
REMARK  206  A    between atoms: _481  and  _482
REMARK  207  A    between atoms: _485  and  _487
REMARK  208  A    between atoms: _487  and  _488
REMARK  209  A    between atoms: _487  and  _490
REMARK  210  A    between atoms: _490  and  _491
REMARK  211  A    between atoms: _496  and  _497
REMARK  212  A    between atoms: _499  and  _501
REMARK  213  A    between atoms: _501  and  _502
REMARK  214  A    between atoms: _501  and  _504
REMARK  215  A    between atoms: _504  and  _505
REMARK                            x       y       z     vdW  Elec       q    Type
REMARK                         _______ _______ _______ _____ _____    ______ ____
ROOT
ATOM      1  CA  ASP A   1       3.383   2.346  16.974  0.00  0.00    +0.144 C 
ENDROOT
BRANCH   1   2
ATOM      2  N   ASP A   1       2.927   1.019  16.594  0.00  0.00    -0.239 NA
ATOM      3  H   ASP A   1       2.305   0.483  17.232  0.00  0.00    +0.142 HD
ENDBRANCH   1   2
BRANCH   1   4
ATOM      4  C   ASP A   1       4.763   2.246  17.600  0.00  0.00    +0.225 C 
ATOM      5  O   ASP A   1       4.947   2.328  18.816  0.00  0.00    -0.287 OA
ENDBRANCH   1   4
BRANCH   1   6
ATOM      6  CB  ASP A   1       2.360   3.061  17.856  0.00  0.00    +0.139 C 
BRANCH   6   7
ATOM      7  CG  ASP A   1       2.702   4.537  18.082  0.00  0.00    +0.367 C 
ATOM      8  OD2 ASP A   1       2.105   5.145  18.984  0.00  0.00    -0.246 OA
ATOM      9  OD1 ASP A   1       3.564   5.093  17.363  0.00  0.00    -0.246 OA
ENDBRANCH   6   7
ENDBRANCH   1   6
TORSDOF 4
REMARK  Name = ../refined-set-2016/2vvv/2vvv_pocket.pdb
REMARK  215 active torsions:
REMARK  status: ('A' for Active; 'I' for Inactive)
REMARK    1  A    between atoms: _1  and  _5
REMARK    2  A    between atoms: _5  and  _6
REMARK    3  A    between atoms: _5  and  _8
REMARK    4  A    between atoms: _8  and  _9
REMARK    5  A    between atoms: _12  and  _14
REMARK    6  A    between atoms: _14  and  _15
REMARK    7  A    between atoms: _14  and  _17
REMARK    8  A    between atoms: _20  and  _22
REMARK    9  A    between atoms: _22  and  _23
REMARK   10  A    between atoms: _22  and  _25
REMARK   11  A    between atoms: _25  and  _26
REMARK   12  A    between atoms: _31  and  _33
REMARK   13  A    between atoms: _33  and  _34
REMARK   14  A    between atoms: _33  and  _36
REMARK   15  A    between atoms: _36  and  _37
REMARK   16  A    between atoms: _37  and  _38
REMARK   17  A    between atoms: _43  and  _45
REMARK   18  A    between atoms: _45  and  _46
REMARK   19  A    between atoms: _45  and  _48
REMARK   20  A    between atoms: _48  and  _49
REMARK   21  A    between atoms: _52  and  _54
REMARK   22  A    between atoms: _54  and  _55
REMARK   23  A    between atoms: _54  and  _57
REMARK   24  A    between atoms: _57  and  _58
REMARK   25  A    between atoms: _58  and  _59
REMARK   26  A    between atoms: _59  and  _60
REMARK   27  A    between atoms: _60  and  _61
REMARK   28  A    between atoms: _65  and  _67
REMARK   29  A    between atoms: _67  and  _68
REMARK   30  A    between atoms: _67  and  _70
REMARK   31  A    between atoms: _70  and  _71
REMARK   32  A    between atoms: _71  and  _72
REMARK   33  A    between atoms: _75  and  _77
REMARK   34  A    between atoms: _77  and  _78
REMARK   35  A    between atoms: _77  and  _80
REMARK   36  A    between atoms: _80  and  _81
REMARK   37  A    between atoms: _84  and  _86
REMARK   38  A    between atoms: _86  and  _87
REMARK   39  A    between atoms: _86  and  _89
REMARK   40  A    between atoms: _89  and  _90
REMARK   41  A    between atoms: _95  and  _96
REMARK   42  A    between atoms: _98  and  _100
REMARK   43  A    between atoms: _100  and  _101
REMARK   44  A    between atoms: _100  and  _103
REMARK   45  A    between atoms: _103  and  _104
REMARK   46  A    between atoms: _107  and  _109
REMARK   47  A    between atoms: _109  and  _110
REMARK   48  A    between atoms: _109  and  _112
REMARK   49  A    between atoms: _112  and  _113
REMARK   50  A    between atoms: _116  and  _118
REMARK   51  A    between atoms: _118  and  _119
REMARK   52  A    between atoms: _118  and  _121
REMARK   53  A    between atoms: _124  and  _126
REMARK   54  A    between atoms: _126  and  _127
REMARK   55  A    between atoms: _126  and  _129
REMARK   56  A    between atoms: _129  and  _130
REMARK   57  A    between atoms: _130  and  _131
REMARK   58  A    between atoms: _131  and  _132
REMARK   59  A    between atoms: _141  and  _143
REMARK   60  A    between atoms: _143  and  _144
REMARK   61  A    between atoms: _143  and  _146
REMARK   62  A    between atoms: _146  and  _147
REMARK   63  A    between atoms: _147  and  _148
REMARK   64  A    between atoms: _151  and  _153
REMARK   65  A    between atoms: _153  and  _154
REMARK   66  A    between atoms: _153  and  _156
REMARK   67  A    between atoms: _156  and  _157
REMARK   68  A    between atoms: _157  and  _158
REMARK   69  A    between atoms: _158  and  _159
REMARK   70  A    between atoms: _159  and  _160
REMARK   71  A    between atoms: _164  and  _166
REMARK   72  A    between atoms: _166  and  _167
REMARK   73  A    between atoms: _166  and  _169
REMARK   74  A    between atoms: _172  and  _174
REMARK   75  A    between atoms: _174  and  _175
REMARK   76  A    between atoms: _174  and  _177
REMARK   77  A    between atoms: _177  and  _178
REMARK   78  A    between atoms: _180  and  _182
REMARK   79  A    between atoms: _182  and  _183
REMARK   80  A    between atoms: _182  and  _185
REMARK   81  A    between atoms: _185  and  _186
REMARK   82  A    between atoms: _188  and  _190
REMARK   83  A    between atoms: _190  and  _191
REMARK   84  A    between atoms: _190  and  _193
REMARK   85  A    between atoms: _193  and  _194
REMARK   86  A    between atoms: _200  and  _202
REMARK   87  A    between atoms: _202  and  _203
REMARK   88  A    between atoms: _202  and  _205
REMARK   89  A    between atoms: _205  and  _206
REMARK   90  A    between atoms: _209  and  _211
REMARK   91  A    between atoms: _211  and  _212
REMARK   92  A    between atoms: _211  and  _214
REMARK   93  A    between atoms: _214  and  _215
REMARK   94  A    between atoms: _218  and  _220
REMARK   95  A    between atoms: _220  and  _221
REMARK   96  A    between atoms: _220  and  _223
REMARK   97  A    between atoms: _223  and  _224
REMARK   98  A    between atoms: _227  and  _229
REMARK   99  A    between atoms: _229  and  _230
REMARK  100  A    between atoms: _229  and  _232
REMARK  101  A    between atoms: _232  and  _233
REMARK  102  A    between atoms: _233  and  _234
REMARK  103  A    between atoms: _236  and  _238
REMARK  104  A    between atoms: _238  and  _239
REMARK  105  A    between atoms: _238  and  _241
REMARK  106  A    between atoms: _241  and  _242
REMARK  107  A    between atoms: _248  and  _250
REMARK  108  A    between atoms: _250  and  _251
REMARK  109  A    between atoms: _250  and  _253
REMARK  110  A    between atoms: _255  and  _257
REMARK  111  A    between atoms: _257  and  _258
REMARK  112  A    between atoms: _261  and  _263
REMARK  113  A    between atoms: _263  and  _264
REMARK  114  A    between atoms: _266  and  _268
REMARK  115  A    between atoms: _268  and  _269
REMARK  116  A    between atoms: _268  and  _271
REMARK  117  A    between atoms: _271  and  _272
REMARK  118  A    between atoms: _272  and  _273
REMARK  119  A    between atoms: _276  and  _278
REMARK  120  A    between atoms: _278  and  _279
REMARK  121  A    between atoms: _278  and  _281
REMARK  122  A    between atoms: _281  and  _282
REMARK  123  A    between atoms: _285  and  _287
REMARK  124  A    between atoms: _287  and  _288
REMARK  125  A    between atoms: _291  and  _293
REMARK  126  A    between atoms: _293  and  _294
REMARK  127  A    between atoms: _293  and  _296
REMARK  128  A    between atoms: _296  and  _297
REMARK  129  A    between atoms: _297  and  _420
REMARK  130  A    between atoms: _298  and  _300
REMARK  131  A    between atoms: _300  and  _301
REMARK  132  A    between atoms: _300  and  _303
REMARK  133  A    between atoms: _303  and  _304
REMARK  134  A    between atoms: _304  and  _305
REMARK  135  A    between atoms: _310  and  _312
REMARK  136  A    between atoms: _312  and  _313
REMARK  137  A    between atoms: _315  and  _317
REMARK  138  A    between atoms: _317  and  _318
REMARK  139  A    between atoms: _317  and  _320
REMARK  140  A    between atoms: _320  and  _321
REMARK  141  A    between atoms: _324  and  _326
REMARK  142  A    between atoms: _326  and  _327
REMARK  143  A    between atoms: _326  and  _329
REMARK  144  A    between atoms: _329  and  _330
REMARK  145  A    between atoms: _332  and  _334
REMARK  146  A    between atoms: _334  and  _335
REMARK  147  A    between atoms: _337  and  _339
REMARK  148  A    between atoms: _339  and  _340
REMARK  149  A    between atoms: _342  and  _344
REMARK  150  A    between atoms: _344  and  _345
REMARK  151  A    between atoms: _344  and  _347
REMARK  152  A    between atoms: _347  and  _348
REMARK  153  A    between atoms: _353  and  _355
REMARK  154  A    between atoms: _355  and  _356
REMARK  155  A    between atoms: _355  and  _358
REMARK  156  A    between atoms: _358  and  _359
REMARK  157  A    between atoms: _362  and  _364
REMARK  158  A    between atoms: _364  and  _365
REMARK  159  A    between atoms: _364  and  _367
REMARK  160  A    between atoms: _370  and  _372
REMARK  161  A    between atoms: _372  and  _373
REMARK  162  A    between atoms: _372  and  _375
REMARK  163  A    between atoms: _375  and  _376
REMARK  164  A    between atoms: _378  and  _380
REMARK  165  A    between atoms: _380  and  _381
REMARK  166  A    between atoms: _380  and  _383
REMARK  167  A    between atoms: _383  and  _384
REMARK  168  A    between atoms: _394  and  _396
REMARK  169  A    between atoms: _396  and  _397
REMARK  170  A    between atoms: _399  and  _401
REMARK  171  A    between atoms: _401  and  _402
REMARK  172  A    between atoms: _401  and  _404
REMARK  173  A    between atoms: _404  and  _405
REMARK  174  A    between atoms: _405  and  _406
REMARK  175  A    between atoms: _409  and  _411
REMARK  176  A    between atoms: _411  and  _412
REMARK  177  A    between atoms: _414  and  _416
REMARK  178  A    between atoms: _416  and  _417
REMARK  179  A    between atoms: _416  and  _419
REMARK  180  A    between atoms: _419  and  _420
REMARK  181  A    between atoms: _421  and  _423
REMARK  182  A    between atoms: _423  and  _424
REMARK  183  A    between atoms: _427  and  _429
REMARK  184  A    between atoms: _429  and  _430
REMARK  185  A    between atoms: _429  and  _432
REMARK  186  A    between atoms: _432  and  _433
REMARK  187  A    between atoms: _433  and  _434
REMARK  188  A    between atoms: _434  and  _435
REMARK  189  A    between atoms: _444  and  _446
REMARK  190  A    between atoms: _446  and  _447
REMARK  191  A    between atoms: _446  and  _449
REMARK  192  A    between atoms: _449  and  _450
REMARK  193  A    between atoms: _450  and  _451
REMARK  194  A    between atoms: _451  and  _452
REMARK  195  A    between atoms: _452  and  _453
REMARK  196  A    between atoms: _457  and  _459
REMARK  197  A    between atoms: _459  and  _460
REMARK  198  A    between atoms: _459  and  _462
REMARK  199  A    between atoms: _462  and  _463
REMARK  200  A    between atoms: _468  and  _469
REMARK  201  A    between atoms: _471  and  _473
REMARK  202  A    between atoms: _473  and  _474
REMARK  203  A    between atoms: _476  and  _478
REMARK  204  A    between atoms: _478  and  _479
REMARK  205  A    between atoms: _478  and  _481
REMARK  206  A    between atoms: _481  and  _482
REMARK  207  A    between atoms: _485  and  _487
REMARK  208  A    between atoms: _487  and  _488
REMARK  209  A    between atoms: _487  and  _490
REMARK  210  A    between atoms: _490  and  _491
REMARK  211  A    between atoms: _496  and  _497
REMARK  212  A    between atoms: _499  and  _501
REMARK  213  A    between atoms: _501  and  _502
REMARK  214  A    between atoms: _501  and  _504
REMARK  215  A    between atoms: _504  and  _505
REMARK                            x       y       z     vdW  Elec       q    Type
REMARK                         _______ _______ _______ _____ _____    ______ ____
ROOT
ATOM      1  CA  VAL A   1       6.018   4.493  33.037  0.00  0.00    +0.133 C 
ENDROOT
BRANCH   1   2
ATOM      2  CB  VAL A   1       4.621   4.683  32.399  0.00  0.00    +0.023 C 
ATOM      3  CG2 VAL A   1       3.571   5.250  33.405  0.00  0.00    +0.002 C 
ATOM      4  CG1 VAL A   1       4.720   5.531  31.126  0.00  0.00    +0.002 C 
ENDBRANCH   1   2
BRANCH   1   5
ATOM      5  N   VAL A   1       5.964   3.575  34.161  0.00  0.00    -0.239 NA
ATOM      6  H   VAL A   1       5.329   3.779  34.959  0.00  0.00    +0.142 HD
ENDBRANCH   1   5
BRANCH   1   7
ATOM      7  C   VAL A   1       6.621   5.819  33.501  0.00  0.00    +0.224 C 
ATOM      8  O   VAL A   1       6.445   6.209  34.639  0.00  0.00    -0.287 OA
ENDBRANCH   1   7
TORSDOF 3
REMARK  Name = ../refined-set-2016/2vvv/2vvv_pocket.pdb
REMARK  215 active torsions:
REMARK  status: ('A' for Active; 'I' for Inactive)
REMARK    1  A    between atoms: _1  and  _5
REMARK    2  A    between atoms: _5  and  _6
REMARK    3  A    between atoms: _5  and  _8
REMARK    4  A    between atoms: _8  and  _9
REMARK    5  A    between atoms: _12  and  _14
REMARK    6  A    between atoms: _14  and  _15
REMARK    7  A    between atoms: _14  and  _17
REMARK    8  A    between atoms: _20  and  _22
REMARK    9  A    between atoms: _22  and  _23
REMARK   10  A    between atoms: _22  and  _25
REMARK   11  A    between atoms: _25  and  _26
REMARK   12  A    between atoms: _31  and  _33
REMARK   13  A    between atoms: _33  and  _34
REMARK   14  A    between atoms: _33  and  _36
REMARK   15  A    between atoms: _36  and  _37
REMARK   16  A    between atoms: _37  and  _38
REMARK   17  A    between atoms: _43  and  _45
REMARK   18  A    between atoms: _45  and  _46
REMARK   19  A    between atoms: _45  and  _48
REMARK   20  A    between atoms: _48  and  _49
REMARK   21  A    between atoms: _52  and  _54
REMARK   22  A    between atoms: _54  and  _55
REMARK   23  A    between atoms: _54  and  _57
REMARK   24  A    between atoms: _57  and  _58
REMARK   25  A    between atoms: _58  and  _59
REMARK   26  A    between atoms: _59  and  _60
REMARK   27  A    between atoms: _60  and  _61
REMARK   28  A    between atoms: _65  and  _67
REMARK   29  A    between atoms: _67  and  _68
REMARK   30  A    between atoms: _67  and  _70
REMARK   31  A    between atoms: _70  and  _71
REMARK   32  A    between atoms: _71  and  _72
REMARK   33  A    between atoms: _75  and  _77
REMARK   34  A    between atoms: _77  and  _78
REMARK   35  A    between atoms: _77  and  _80
REMARK   36  A    between atoms: _80  and  _81
REMARK   37  A    between atoms: _84  and  _86
REMARK   38  A    between atoms: _86  and  _87
REMARK   39  A    between atoms: _86  and  _89
REMARK   40  A    between atoms: _89  and  _90
REMARK   41  A    between atoms: _95  and  _96
REMARK   42  A    between atoms: _98  and  _100
REMARK   43  A    between atoms: _100  and  _101
REMARK   44  A    between atoms: _100  and  _103
REMARK   45  A    between atoms: _103  and  _104
REMARK   46  A    between atoms: _107  and  _109
REMARK   47  A    between atoms: _109  and  _110
REMARK   48  A    between atoms: _109  and  _112
REMARK   49  A    between atoms: _112  and  _113
REMARK   50  A    between atoms: _116  and  _118
REMARK   51  A    between atoms: _118  and  _119
REMARK   52  A    between atoms: _118  and  _121
REMARK   53  A    between atoms: _124  and  _126
REMARK   54  A    between atoms: _126  and  _127
REMARK   55  A    between atoms: _126  and  _129
REMARK   56  A    between atoms: _129  and  _130
REMARK   57  A    between atoms: _130  and  _131
REMARK   58  A    between atoms: _131  and  _132
REMARK   59  A    between atoms: _141  and  _143
REMARK   60  A    between atoms: _143  and  _144
REMARK   61  A    between atoms: _143  and  _146
REMARK   62  A    between atoms: _146  and  _147
REMARK   63  A    between atoms: _147  and  _148
REMARK   64  A    between atoms: _151  and  _153
REMARK   65  A    between atoms: _153  and  _154
REMARK   66  A    between atoms: _153  and  _156
REMARK   67  A    between atoms: _156  and  _157
REMARK   68  A    between atoms: _157  and  _158
REMARK   69  A    between atoms: _158  and  _159
REMARK   70  A    between atoms: _159  and  _160
REMARK   71  A    between atoms: _164  and  _166
REMARK   72  A    between atoms: _166  and  _167
REMARK   73  A    between atoms: _166  and  _169
REMARK   74  A    between atoms: _172  and  _174
REMARK   75  A    between atoms: _174  and  _175
REMARK   76  A    between atoms: _174  and  _177
REMARK   77  A    between atoms: _177  and  _178
REMARK   78  A    between atoms: _180  and  _182
REMARK   79  A    between atoms: _182  and  _183
REMARK   80  A    between atoms: _182  and  _185
REMARK   81  A    between atoms: _185  and  _186
REMARK   82  A    between atoms: _188  and  _190
REMARK   83  A    between atoms: _190  and  _191
REMARK   84  A    between atoms: _190  and  _193
REMARK   85  A    between atoms: _193  and  _194
REMARK   86  A    between atoms: _200  and  _202
REMARK   87  A    between atoms: _202  and  _203
REMARK   88  A    between atoms: _202  and  _205
REMARK   89  A    between atoms: _205  and  _206
REMARK   90  A    between atoms: _209  and  _211
REMARK   91  A    between atoms: _211  and  _212
REMARK   92  A    between atoms: _211  and  _214
REMARK   93  A    between atoms: _214  and  _215
REMARK   94  A    between atoms: _218  and  _220
REMARK   95  A    between atoms: _220  and  _221
REMARK   96  A    between atoms: _220  and  _223
REMARK   97  A    between atoms: _223  and  _224
REMARK   98  A    between atoms: _227  and  _229
REMARK   99  A    between atoms: _229  and  _230
REMARK  100  A    between atoms: _229  and  _232
REMARK  101  A    between atoms: _232  and  _233
REMARK  102  A    between atoms: _233  and  _234
REMARK  103  A    between atoms: _236  and  _238
REMARK  104  A    between atoms: _238  and  _239
REMARK  105  A    between atoms: _238  and  _241
REMARK  106  A    between atoms: _241  and  _242
REMARK  107  A    between atoms: _248  and  _250
REMARK  108  A    between atoms: _250  and  _251
REMARK  109  A    between atoms: _250  and  _253
REMARK  110  A    between atoms: _255  and  _257
REMARK  111  A    between atoms: _257  and  _258
REMARK  112  A    between atoms: _261  and  _263
REMARK  113  A    between atoms: _263  and  _264
REMARK  114  A    between atoms: _266  and  _268
REMARK  115  A    between atoms: _268  and  _269
REMARK  116  A    between atoms: _268  and  _271
REMARK  117  A    between atoms: _271  and  _272
REMARK  118  A    between atoms: _272  and  _273
REMARK  119  A    between atoms: _276  and  _278
REMARK  120  A    between atoms: _278  and  _279
REMARK  121  A    between atoms: _278  and  _281
REMARK  122  A    between atoms: _281  and  _282
REMARK  123  A    between atoms: _285  and  _287
REMARK  124  A    between atoms: _287  and  _288
REMARK  125  A    between atoms: _291  and  _293
REMARK  126  A    between atoms: _293  and  _294
REMARK  127  A    between atoms: _293  and  _296
REMARK  128  A    between atoms: _296  and  _297
REMARK  129  A    between atoms: _297  and  _420
REMARK  130  A    between atoms: _298  and  _300
REMARK  131  A    between atoms: _300  and  _301
REMARK  132  A    between atoms: _300  and  _303
REMARK  133  A    between atoms: _303  and  _304
REMARK  134  A    between atoms: _304  and  _305
REMARK  135  A    between atoms: _310  and  _312
REMARK  136  A    between atoms: _312  and  _313
REMARK  137  A    between atoms: _315  and  _317
REMARK  138  A    between atoms: _317  and  _318
REMARK  139  A    between atoms: _317  and  _320
REMARK  140  A    between atoms: _320  and  _321
REMARK  141  A    between atoms: _324  and  _326
REMARK  142  A    between atoms: _326  and  _327
REMARK  143  A    between atoms: _326  and  _329
REMARK  144  A    between atoms: _329  and  _330
REMARK  145  A    between atoms: _332  and  _334
REMARK  146  A    between atoms: _334  and  _335
REMARK  147  A    between atoms: _337  and  _339
REMARK  148  A    between atoms: _339  and  _340
REMARK  149  A    between atoms: _342  and  _344
REMARK  150  A    between atoms: _344  and  _345
REMARK  151  A    between atoms: _344  and  _347
REMARK  152  A    between atoms: _347  and  _348
REMARK  153  A    between atoms: _353  and  _355
REMARK  154  A    between atoms: _355  and  _356
REMARK  155  A    between atoms: _355  and  _358
REMARK  156  A    between atoms: _358  and  _359
REMARK  157  A    between atoms: _362  and  _364
REMARK  158  A    between atoms: _364  and  _365
REMARK  159  A    between atoms: _364  and  _367
REMARK  160  A    between atoms: _370  and  _372
REMARK  161  A    between atoms: _372  and  _373
REMARK  162  A    between atoms: _372  and  _375
REMARK  163  A    between atoms: _375  and  _376
REMARK  164  A    between atoms: _378  and  _380
REMARK  165  A    between atoms: _380  and  _381
REMARK  166  A    between atoms: _380  and  _383
REMARK  167  A    between atoms: _383  and  _384
REMARK  168  A    between atoms: _394  and  _396
REMARK  169  A    between atoms: _396  and  _397
REMARK  170  A    between atoms: _399  and  _401
REMARK  171  A    between atoms: _401  and  _402
REMARK  172  A    between atoms: _401  and  _404
REMARK  173  A    between atoms: _404  and  _405
REMARK  174  A    between atoms: _405  and  _406
REMARK  175  A    between atoms: _409  and  _411
REMARK  176  A    between atoms: _411  and  _412
REMARK  177  A    between atoms: _414  and  _416
REMARK  178  A    between atoms: _416  and  _417
REMARK  179  A    between atoms: _416  and  _419
REMARK  180  A    between atoms: _419  and  _420
REMARK  181  A    between atoms: _421  and  _423
REMARK  182  A    between atoms: _423  and  _424
REMARK  183  A    between atoms: _427  and  _429
REMARK  184  A    between atoms: _429  and  _430
REMARK  185  A    between atoms: _429  and  _432
REMARK  186  A    between atoms: _432  and  _433
REMARK  187  A    between atoms: _433  and  _434
REMARK  188  A    between atoms: _434  and  _435
REMARK  189  A    between atoms: _444  and  _446
REMARK  190  A    between atoms: _446  and  _447
REMARK  191  A    between atoms: _446  and  _449
REMARK  192  A    between atoms: _449  and  _450
REMARK  193  A    between atoms: _450  and  _451
REMARK  194  A    between atoms: _451  and  _452
REMARK  195  A    between atoms: _452  and  _453
REMARK  196  A    between atoms: _457  and  _459
REMARK  197  A    between atoms: _459  and  _460
REMARK  198  A    between atoms: _459  and  _462
REMARK  199  A    between atoms: _462  and  _463
REMARK  200  A    between atoms: _468  and  _469
REMARK  201  A    between atoms: _471  and  _473
REMARK  202  A    between atoms: _473  and  _474
REMARK  203  A    between atoms: _476  and  _478
REMARK  204  A    between atoms: _478  and  _479
REMARK  205  A    between atoms: _478  and  _481
REMARK  206  A    between atoms: _481  and  _482
REMARK  207  A    between atoms: _485  and  _487
REMARK  208  A    between atoms: _487  and  _488
REMARK  209  A    between atoms: _487  and  _490
REMARK  210  A    between atoms: _490  and  _491
REMARK  211  A    between atoms: _496  and  _497
REMARK  212  A    between atoms: _499  and  _501
REMARK  213  A    between atoms: _501  and  _502
REMARK  214  A    between atoms: _501  and  _504
REMARK  215  A    between atoms: _504  and  _505
REMARK                            x       y       z     vdW  Elec       q    Type
REMARK                         _______ _______ _______ _____ _____    ______ ____
ROOT
ATOM      1  NE  ARG A   1      -0.782  18.283  26.963  0.00  0.00    -0.265 N 
ATOM      2  HE  ARG A   1       0.209  18.444  26.693  0.00  0.00    +0.259 HD
ATOM      3  CZ  ARG A   1      -1.712  18.490  26.040  0.00  0.00    +0.342 C 
ATOM      4  NH2 ARG A   1      -2.998  18.303  26.320  0.00  0.00    -0.292 N 
ATOM      5 HH21 ARG A   1      -3.283  17.991  27.270  0.00  0.00    +0.255 HD
ATOM      6 HH22 ARG A   1      -3.719  18.468  25.589  0.00  0.00    +0.255 HD
ATOM      7  NH1 ARG A   1      -1.348  18.879  24.826  0.00  0.00    -0.292 N 
ATOM      8 HH11 ARG A   1      -0.341  19.019  24.605  0.00  0.00    +0.255 HD
ATOM      9 HH12 ARG A   1      -2.069  19.044  24.095  0.00  0.00    +0.255 HD
ENDROOT
BRANCH   1  10
ATOM     10  CD  ARG A   1      -1.048  17.848  28.323  0.00  0.00    +0.174 C 
BRANCH  10  11
ATOM     11  CG  ARG A   1       0.270  17.736  29.076  0.00  0.00    +0.045 C 
BRANCH  11  12
ATOM     12  CB  ARG A   1       0.081  17.015  30.379  0.00  0.00    +0.029 C 
BRANCH  12  13
ATOM     13  CA  ARG A   1       1.375  16.789  31.162  0.00  0.00    +0.133 C 
BRANCH  13  14
ATOM     14  N   ARG A   1       2.298  15.981  30.354  0.00  0.00    -0.239 NA
ATOM     15  H   ARG A   1       2.011  15.666  29.405  0.00  0.00    +0.142 HD
ENDBRANCH  13  14
BRANCH  13  16
ATOM     16  C   ARG A   1       1.034  16.148  32.510  0.00  0.00    +0.224 C 
ATOM     17  O   ARG A   1       0.946  14.920  32.630  0.00  0.00    -0.287 OA
ENDBRANCH  13  16
ENDBRANCH  12  13
ENDBRANCH  11  12
ENDBRANCH  10  11
ENDBRANCH   1  10
TORSDOF 6
REMARK  Name = ../refined-set-2016/2vvv/2vvv_pocket.pdb
REMARK  215 active torsions:
REMARK  status: ('A' for Active; 'I' for Inactive)
REMARK    1  A    between atoms: _1  and  _5
REMARK    2  A    between atoms: _5  and  _6
REMARK    3  A    between atoms: _5  and  _8
REMARK    4  A    between atoms: _8  and  _9
REMARK    5  A    between atoms: _12  and  _14
REMARK    6  A    between atoms: _14  and  _15
REMARK    7  A    between atoms: _14  and  _17
REMARK    8  A    between atoms: _20  and  _22
REMARK    9  A    between atoms: _22  and  _23
REMARK   10  A    between atoms: _22  and  _25
REMARK   11  A    between atoms: _25  and  _26
REMARK   12  A    between atoms: _31  and  _33
REMARK   13  A    between atoms: _33  and  _34
REMARK   14  A    between atoms: _33  and  _36
REMARK   15  A    between atoms: _36  and  _37
REMARK   16  A    between atoms: _37  and  _38
REMARK   17  A    between atoms: _43  and  _45
REMARK   18  A    between atoms: _45  and  _46
REMARK   19  A    between atoms: _45  and  _48
REMARK   20  A    between atoms: _48  and  _49
REMARK   21  A    between atoms: _52  and  _54
REMARK   22  A    between atoms: _54  and  _55
REMARK   23  A    between atoms: _54  and  _57
REMARK   24  A    between atoms: _57  and  _58
REMARK   25  A    between atoms: _58  and  _59
REMARK   26  A    between atoms: _59  and  _60
REMARK   27  A    between atoms: _60  and  _61
REMARK   28  A    between atoms: _65  and  _67
REMARK   29  A    between atoms: _67  and  _68
REMARK   30  A    between atoms: _67  and  _70
REMARK   31  A    between atoms: _70  and  _71
REMARK   32  A    between atoms: _71  and  _72
REMARK   33  A    between atoms: _75  and  _77
REMARK   34  A    between atoms: _77  and  _78
REMARK   35  A    between atoms: _77  and  _80
REMARK   36  A    between atoms: _80  and  _81
REMARK   37  A    between atoms: _84  and  _86
REMARK   38  A    between atoms: _86  and  _87
REMARK   39  A    between atoms: _86  and  _89
REMARK   40  A    between atoms: _89  and  _90
REMARK   41  A    between atoms: _95  and  _96
REMARK   42  A    between atoms: _98  and  _100
REMARK   43  A    between atoms: _100  and  _101
REMARK   44  A    between atoms: _100  and  _103
REMARK   45  A    between atoms: _103  and  _104
REMARK   46  A    between atoms: _107  and  _109
REMARK   47  A    between atoms: _109  and  _110
REMARK   48  A    between atoms: _109  and  _112
REMARK   49  A    between atoms: _112  and  _113
REMARK   50  A    between atoms: _116  and  _118
REMARK   51  A    between atoms: _118  and  _119
REMARK   52  A    between atoms: _118  and  _121
REMARK   53  A    between atoms: _124  and  _126
REMARK   54  A    between atoms: _126  and  _127
REMARK   55  A    between atoms: _126  and  _129
REMARK   56  A    between atoms: _129  and  _130
REMARK   57  A    between atoms: _130  and  _131
REMARK   58  A    between atoms: _131  and  _132
REMARK   59  A    between atoms: _141  and  _143
REMARK   60  A    between atoms: _143  and  _144
REMARK   61  A    between atoms: _143  and  _146
REMARK   62  A    between atoms: _146  and  _147
REMARK   63  A    between atoms: _147  and  _148
REMARK   64  A    between atoms: _151  and  _153
REMARK   65  A    between atoms: _153  and  _154
REMARK   66  A    between atoms: _153  and  _156
REMARK   67  A    between atoms: _156  and  _157
REMARK   68  A    between atoms: _157  and  _158
REMARK   69  A    between atoms: _158  and  _159
REMARK   70  A    between atoms: _159  and  _160
REMARK   71  A    between atoms: _164  and  _166
REMARK   72  A    between atoms: _166  and  _167
REMARK   73  A    between atoms: _166  and  _169
REMARK   74  A    between atoms: _172  and  _174
REMARK   75  A    between atoms: _174  and  _175
REMARK   76  A    between atoms: _174  and  _177
REMARK   77  A    between atoms: _177  and  _178
REMARK   78  A    between atoms: _180  and  _182
REMARK   79  A    between atoms: _182  and  _183
REMARK   80  A    between atoms: _182  and  _185
REMARK   81  A    between atoms: _185  and  _186
REMARK   82  A    between atoms: _188  and  _190
REMARK   83  A    between atoms: _190  and  _191
REMARK   84  A    between atoms: _190  and  _193
REMARK   85  A    between atoms: _193  and  _194
REMARK   86  A    between atoms: _200  and  _202
REMARK   87  A    between atoms: _202  and  _203
REMARK   88  A    between atoms: _202  and  _205
REMARK   89  A    between atoms: _205  and  _206
REMARK   90  A    between atoms: _209  and  _211
REMARK   91  A    between atoms: _211  and  _212
REMARK   92  A    between atoms: _211  and  _214
REMARK   93  A    between atoms: _214  and  _215
REMARK   94  A    between atoms: _218  and  _220
REMARK   95  A    between atoms: _220  and  _221
REMARK   96  A    between atoms: _220  and  _223
REMARK   97  A    between atoms: _223  and  _224
REMARK   98  A    between atoms: _227  and  _229
REMARK   99  A    between atoms: _229  and  _230
REMARK  100  A    between atoms: _229  and  _232
REMARK  101  A    between atoms: _232  and  _233
REMARK  102  A    between atoms: _233  and  _234
REMARK  103  A    between atoms: _236  and  _238
REMARK  104  A    between atoms: _238  and  _239
REMARK  105  A    between atoms: _238  and  _241
REMARK  106  A    between atoms: _241  and  _242
REMARK  107  A    between atoms: _248  and  _250
REMARK  108  A    between atoms: _250  and  _251
REMARK  109  A    between atoms: _250  and  _253
REMARK  110  A    between atoms: _255  and  _257
REMARK  111  A    between atoms: _257  and  _258
REMARK  112  A    between atoms: _261  and  _263
REMARK  113  A    between atoms: _263  and  _264
REMARK  114  A    between atoms: _266  and  _268
REMARK  115  A    between atoms: _268  and  _269
REMARK  116  A    between atoms: _268  and  _271
REMARK  117  A    between atoms: _271  and  _272
REMARK  118  A    between atoms: _272  and  _273
REMARK  119  A    between atoms: _276  and  _278
REMARK  120  A    between atoms: _278  and  _279
REMARK  121  A    between atoms: _278  and  _281
REMARK  122  A    between atoms: _281  and  _282
REMARK  123  A    between atoms: _285  and  _287
REMARK  124  A    between atoms: _287  and  _288
REMARK  125  A    between atoms: _291  and  _293
REMARK  126  A    between atoms: _293  and  _294
REMARK  127  A    between atoms: _293  and  _296
REMARK  128  A    between atoms: _296  and  _297
REMARK  129  A    between atoms: _297  and  _420
REMARK  130  A    between atoms: _298  and  _300
REMARK  131  A    between atoms: _300  and  _301
REMARK  132  A    between atoms: _300  and  _303
REMARK  133  A    between atoms: _303  and  _304
REMARK  134  A    between atoms: _304  and  _305
REMARK  135  A    between atoms: _310  and  _312
REMARK  136  A    between atoms: _312  and  _313
REMARK  137  A    between atoms: _315  and  _317
REMARK  138  A    between atoms: _317  and  _318
REMARK  139  A    between atoms: _317  and  _320
REMARK  140  A    between atoms: _320  and  _321
REMARK  141  A    between atoms: _324  and  _326
REMARK  142  A    between atoms: _326  and  _327
REMARK  143  A    between atoms: _326  and  _329
REMARK  144  A    between atoms: _329  and  _330
REMARK  145  A    between atoms: _332  and  _334
REMARK  146  A    between atoms: _334  and  _335
REMARK  147  A    between atoms: _337  and  _339
REMARK  148  A    between atoms: _339  and  _340
REMARK  149  A    between atoms: _342  and  _344
REMARK  150  A    between atoms: _344  and  _345
REMARK  151  A    between atoms: _344  and  _347
REMARK  152  A    between atoms: _347  and  _348
REMARK  153  A    between atoms: _353  and  _355
REMARK  154  A    between atoms: _355  and  _356
REMARK  155  A    between atoms: _355  and  _358
REMARK  156  A    between atoms: _358  and  _359
REMARK  157  A    between atoms: _362  and  _364
REMARK  158  A    between atoms: _364  and  _365
REMARK  159  A    between atoms: _364  and  _367
REMARK  160  A    between atoms: _370  and  _372
REMARK  161  A    between atoms: _372  and  _373
REMARK  162  A    between atoms: _372  and  _375
REMARK  163  A    between atoms: _375  and  _376
REMARK  164  A    between atoms: _378  and  _380
REMARK  165  A    between atoms: _380  and  _381
REMARK  166  A    between atoms: _380  and  _383
REMARK  167  A    between atoms: _383  and  _384
REMARK  168  A    between atoms: _394  and  _396
REMARK  169  A    between atoms: _396  and  _397
REMARK  170  A    between atoms: _399  and  _401
REMARK  171  A    between atoms: _401  and  _402
REMARK  172  A    between atoms: _401  and  _404
REMARK  173  A    between atoms: _404  and  _405
REMARK  174  A    between atoms: _405  and  _406
REMARK  175  A    between atoms: _409  and  _411
REMARK  176  A    between atoms: _411  and  _412
REMARK  177  A    between atoms: _414  and  _416
REMARK  178  A    between atoms: _416  and  _417
REMARK  179  A    between atoms: _416  and  _419
REMARK  180  A    between atoms: _419  and  _420
REMARK  181  A    between atoms: _421  and  _423
REMARK  182  A    between atoms: _423  and  _424
REMARK  183  A    between atoms: _427  and  _429
REMARK  184  A    between atoms: _429  and  _430
REMARK  185  A    between atoms: _429  and  _432
REMARK  186  A    between atoms: _432  and  _433
REMARK  187  A    between atoms: _433  and  _434
REMARK  188  A    between atoms: _434  and  _435
REMARK  189  A    between atoms: _444  and  _446
REMARK  190  A    between atoms: _446  and  _447
REMARK  191  A    between atoms: _446  and  _449
REMARK  192  A    between atoms: _449  and  _450
REMARK  193  A    between atoms: _450  and  _451
REMARK  194  A    between atoms: _451  and  _452
REMARK  195  A    between atoms: _452  and  _453
REMARK  196  A    between atoms: _457  and  _459
REMARK  197  A    between atoms: _459  and  _460
REMARK  198  A    between atoms: _459  and  _462
REMARK  199  A    between atoms: _462  and  _463
REMARK  200  A    between atoms: _468  and  _469
REMARK  201  A    between atoms: _471  and  _473
REMARK  202  A    between atoms: _473  and  _474
REMARK  203  A    between atoms: _476  and  _478
REMARK  204  A    between atoms: _478  and  _479
REMARK  205  A    between atoms: _478  and  _481
REMARK  206  A    between atoms: _481  and  _482
REMARK  207  A    between atoms: _485  and  _487
REMARK  208  A    between atoms: _487  and  _488
REMARK  209  A    between atoms: _487  and  _490
REMARK  210  A    between atoms: _490  and  _491
REMARK  211  A    between atoms: _496  and  _497
REMARK  212  A    between atoms: _499  and  _501
REMARK  213  A    between atoms: _501  and  _502
REMARK  214  A    between atoms: _501  and  _504
REMARK  215  A    between atoms: _504  and  _505
REMARK                            x       y       z     vdW  Elec       q    Type
REMARK                         _______ _______ _______ _____ _____    ______ ____
ROOT
ATOM      1  C   GLU A   1      -5.008  17.268  30.094  0.00  0.00    +0.238 C 
ATOM      2  N   LYS A   2      -5.551  18.351  30.632  0.00  0.00    -0.298 N 
ATOM      3  H   LYS A   2      -5.975  18.295  31.580  0.00  0.00    +0.150 HD
ATOM      4  O   GLU A   1      -4.386  17.293  29.024  0.00  0.00    -0.274 OA
ENDROOT
BRANCH   1   5
ATOM      5  CA  GLU A   1      -5.197  15.953  30.869  0.00  0.00    +0.145 C 
BRANCH   5   6
ATOM      6  N   GLU A   1      -4.786  15.988  32.262  0.00  0.00    -0.238 NA
ATOM      7  H   GLU A   1      -5.385  15.534  32.981  0.00  0.00    +0.142 HD
ENDBRANCH   5   6
BRANCH   5   8
ATOM      8  CB  GLU A   1      -6.650  15.493  30.761  0.00  0.00    +0.038 C 
BRANCH   8   9
ATOM      9  CG  GLU A   1      -7.063  15.319  29.321  0.00  0.00    +0.116 C 
BRANCH   9  10
ATOM     10  CD  GLU A   1      -8.406  14.658  29.154  0.00  0.00    +0.365 C 
ATOM     11  OE2 GLU A   1      -8.679  13.621  29.808  0.00  0.00    -0.246 OA
ATOM     12  OE1 GLU A   1      -9.193  15.165  28.327  0.00  0.00    -0.246 OA
ENDBRANCH   9  10
ENDBRANCH   8   9
ENDBRANCH   5   8
ENDBRANCH   1   5
BRANCH   2  13
ATOM     13  CA  LYS A   2      -5.562  19.627  29.908  0.00  0.00    +0.137 C 
BRANCH  13  14
ATOM     14  C   LYS A   2      -4.425  20.513  30.371  0.00  0.00    +0.227 C 
ATOM     15  O   LYS A   2      -4.384  21.712  30.073  0.00  0.00    -0.286 OA
ENDBRANCH  13  14
BRANCH  13  16
ATOM     16  CB  LYS A   2      -6.899  20.347  30.137  0.00  0.00    +0.028 C 
BRANCH  16  17
ATOM     17  CG  LYS A   2      -8.115  19.553  29.654  0.00  0.00    -0.000 C 
BRANCH  17  18
ATOM     18  CD  LYS A   2      -9.412  20.303  29.914  0.00  0.00    -0.024 C 
BRANCH  18  19
ATOM     19  CE  LYS A   2     -10.599  19.582  29.292  0.00  0.00    -0.086 C 
BRANCH  19  20
ATOM     20  NZ  LYS A   2     -11.879  20.308  29.526  0.00  0.00    +0.380 N 
ATOM     21  HZ1 LYS A   2     -12.048  20.390  30.549  0.00  0.00    -0.089 HD
ATOM     22  HZ2 LYS A   2     -11.819  21.258  29.106  0.00  0.00    -0.089 HD
ATOM     23  HZ3 LYS A   2     -12.660  19.782  29.085  0.00  0.00    -0.089 HD
ENDBRANCH  19  20
ENDBRANCH  18  19
ENDBRANCH  17  18
ENDBRANCH  16  17
ENDBRANCH  13  16
ENDBRANCH   2  13
TORSDOF 12
REMARK  Name = ../refined-set-2016/2vvv/2vvv_pocket.pdb
REMARK  215 active torsions:
REMARK  status: ('A' for Active; 'I' for Inactive)
REMARK    1  A    between atoms: _1  and  _5
REMARK    2  A    between atoms: _5  and  _6
REMARK    3  A    between atoms: _5  and  _8
REMARK    4  A    between atoms: _8  and  _9
REMARK    5  A    between atoms: _12  and  _14
REMARK    6  A    between atoms: _14  and  _15
REMARK    7  A    between atoms: _14  and  _17
REMARK    8  A    between atoms: _20  and  _22
REMARK    9  A    between atoms: _22  and  _23
REMARK   10  A    between atoms: _22  and  _25
REMARK   11  A    between atoms: _25  and  _26
REMARK   12  A    between atoms: _31  and  _33
REMARK   13  A    between atoms: _33  and  _34
REMARK   14  A    between atoms: _33  and  _36
REMARK   15  A    between atoms: _36  and  _37
REMARK   16  A    between atoms: _37  and  _38
REMARK   17  A    between atoms: _43  and  _45
REMARK   18  A    between atoms: _45  and  _46
REMARK   19  A    between atoms: _45  and  _48
REMARK   20  A    between atoms: _48  and  _49
REMARK   21  A    between atoms: _52  and  _54
REMARK   22  A    between atoms: _54  and  _55
REMARK   23  A    between atoms: _54  and  _57
REMARK   24  A    between atoms: _57  and  _58
REMARK   25  A    between atoms: _58  and  _59
REMARK   26  A    between atoms: _59  and  _60
REMARK   27  A    between atoms: _60  and  _61
REMARK   28  A    between atoms: _65  and  _67
REMARK   29  A    between atoms: _67  and  _68
REMARK   30  A    between atoms: _67  and  _70
REMARK   31  A    between atoms: _70  and  _71
REMARK   32  A    between atoms: _71  and  _72
REMARK   33  A    between atoms: _75  and  _77
REMARK   34  A    between atoms: _77  and  _78
REMARK   35  A    between atoms: _77  and  _80
REMARK   36  A    between atoms: _80  and  _81
REMARK   37  A    between atoms: _84  and  _86
REMARK   38  A    between atoms: _86  and  _87
REMARK   39  A    between atoms: _86  and  _89
REMARK   40  A    between atoms: _89  and  _90
REMARK   41  A    between atoms: _95  and  _96
REMARK   42  A    between atoms: _98  and  _100
REMARK   43  A    between atoms: _100  and  _101
REMARK   44  A    between atoms: _100  and  _103
REMARK   45  A    between atoms: _103  and  _104
REMARK   46  A    between atoms: _107  and  _109
REMARK   47  A    between atoms: _109  and  _110
REMARK   48  A    between atoms: _109  and  _112
REMARK   49  A    between atoms: _112  and  _113
REMARK   50  A    between atoms: _116  and  _118
REMARK   51  A    between atoms: _118  and  _119
REMARK   52  A    between atoms: _118  and  _121
REMARK   53  A    between atoms: _124  and  _126
REMARK   54  A    between atoms: _126  and  _127
REMARK   55  A    between atoms: _126  and  _129
REMARK   56  A    between atoms: _129  and  _130
REMARK   57  A    between atoms: _130  and  _131
REMARK   58  A    between atoms: _131  and  _132
REMARK   59  A    between atoms: _141  and  _143
REMARK   60  A    between atoms: _143  and  _144
REMARK   61  A    between atoms: _143  and  _146
REMARK   62  A    between atoms: _146  and  _147
REMARK   63  A    between atoms: _147  and  _148
REMARK   64  A    between atoms: _151  and  _153
REMARK   65  A    between atoms: _153  and  _154
REMARK   66  A    between atoms: _153  and  _156
REMARK   67  A    between atoms: _156  and  _157
REMARK   68  A    between atoms: _157  and  _158
REMARK   69  A    between atoms: _158  and  _159
REMARK   70  A    between atoms: _159  and  _160
REMARK   71  A    between atoms: _164  and  _166
REMARK   72  A    between atoms: _166  and  _167
REMARK   73  A    between atoms: _166  and  _169
REMARK   74  A    between atoms: _172  and  _174
REMARK   75  A    between atoms: _174  and  _175
REMARK   76  A    between atoms: _174  and  _177
REMARK   77  A    between atoms: _177  and  _178
REMARK   78  A    between atoms: _180  and  _182
REMARK   79  A    between atoms: _182  and  _183
REMARK   80  A    between atoms: _182  and  _185
REMARK   81  A    between atoms: _185  and  _186
REMARK   82  A    between atoms: _188  and  _190
REMARK   83  A    between atoms: _190  and  _191
REMARK   84  A    between atoms: _190  and  _193
REMARK   85  A    between atoms: _193  and  _194
REMARK   86  A    between atoms: _200  and  _202
REMARK   87  A    between atoms: _202  and  _203
REMARK   88  A    between atoms: _202  and  _205
REMARK   89  A    between atoms: _205  and  _206
REMARK   90  A    between atoms: _209  and  _211
REMARK   91  A    between atoms: _211  and  _212
REMARK   92  A    between atoms: _211  and  _214
REMARK   93  A    between atoms: _214  and  _215
REMARK   94  A    between atoms: _218  and  _220
REMARK   95  A    between atoms: _220  and  _221
REMARK   96  A    between atoms: _220  and  _223
REMARK   97  A    between atoms: _223  and  _224
REMARK   98  A    between atoms: _227  and  _229
REMARK   99  A    between atoms: _229  and  _230
REMARK  100  A    between atoms: _229  and  _232
REMARK  101  A    between atoms: _232  and  _233
REMARK  102  A    between atoms: _233  and  _234
REMARK  103  A    between atoms: _236  and  _238
REMARK  104  A    between atoms: _238  and  _239
REMARK  105  A    between atoms: _238  and  _241
REMARK  106  A    between atoms: _241  and  _242
REMARK  107  A    between atoms: _248  and  _250
REMARK  108  A    between atoms: _250  and  _251
REMARK  109  A    between atoms: _250  and  _253
REMARK  110  A    between atoms: _255  and  _257
REMARK  111  A    between atoms: _257  and  _258
REMARK  112  A    between atoms: _261  and  _263
REMARK  113  A    between atoms: _263  and  _264
REMARK  114  A    between atoms: _266  and  _268
REMARK  115  A    between atoms: _268  and  _269
REMARK  116  A    between atoms: _268  and  _271
REMARK  117  A    between atoms: _271  and  _272
REMARK  118  A    between atoms: _272  and  _273
REMARK  119  A    between atoms: _276  and  _278
REMARK  120  A    between atoms: _278  and  _279
REMARK  121  A    between atoms: _278  and  _281
REMARK  122  A    between atoms: _281  and  _282
REMARK  123  A    between atoms: _285  and  _287
REMARK  124  A    between atoms: _287  and  _288
REMARK  125  A    between atoms: _291  and  _293
REMARK  126  A    between atoms: _293  and  _294
REMARK  127  A    between atoms: _293  and  _296
REMARK  128  A    between atoms: _296  and  _297
REMARK  129  A    between atoms: _297  and  _420
REMARK  130  A    between atoms: _298  and  _300
REMARK  131  A    between atoms: _300  and  _301
REMARK  132  A    between atoms: _300  and  _303
REMARK  133  A    between atoms: _303  and  _304
REMARK  134  A    between atoms: _304  and  _305
REMARK  135  A    between atoms: _310  and  _312
REMARK  136  A    between atoms: _312  and  _313
REMARK  137  A    between atoms: _315  and  _317
REMARK  138  A    between atoms: _317  and  _318
REMARK  139  A    between atoms: _317  and  _320
REMARK  140  A    between atoms: _320  and  _321
REMARK  141  A    between atoms: _324  and  _326
REMARK  142  A    between atoms: _326  and  _327
REMARK  143  A    between atoms: _326  and  _329
REMARK  144  A    between atoms: _329  and  _330
REMARK  145  A    between atoms: _332  and  _334
REMARK  146  A    between atoms: _334  and  _335
REMARK  147  A    between atoms: _337  and  _339
REMARK  148  A    between atoms: _339  and  _340
REMARK  149  A    between atoms: _342  and  _344
REMARK  150  A    between atoms: _344  and  _345
REMARK  151  A    between atoms: _344  and  _347
REMARK  152  A    between atoms: _347  and  _348
REMARK  153  A    between atoms: _353  and  _355
REMARK  154  A    between atoms: _355  and  _356
REMARK  155  A    between atoms: _355  and  _358
REMARK  156  A    between atoms: _358  and  _359
REMARK  157  A    between atoms: _362  and  _364
REMARK  158  A    between atoms: _364  and  _365
REMARK  159  A    between atoms: _364  and  _367
REMARK  160  A    between atoms: _370  and  _372
REMARK  161  A    between atoms: _372  and  _373
REMARK  162  A    between atoms: _372  and  _375
REMARK  163  A    between atoms: _375  and  _376
REMARK  164  A    between atoms: _378  and  _380
REMARK  165  A    between atoms: _380  and  _381
REMARK  166  A    between atoms: _380  and  _383
REMARK  167  A    between atoms: _383  and  _384
REMARK  168  A    between atoms: _394  and  _396
REMARK  169  A    between atoms: _396  and  _397
REMARK  170  A    between atoms: _399  and  _401
REMARK  171  A    between atoms: _401  and  _402
REMARK  172  A    between atoms: _401  and  _404
REMARK  173  A    between atoms: _404  and  _405
REMARK  174  A    between atoms: _405  and  _406
REMARK  175  A    between atoms: _409  and  _411
REMARK  176  A    between atoms: _411  and  _412
REMARK  177  A    between atoms: _414  and  _416
REMARK  178  A    between atoms: _416  and  _417
REMARK  179  A    between atoms: _416  and  _419
REMARK  180  A    between atoms: _419  and  _420
REMARK  181  A    between atoms: _421  and  _423
REMARK  182  A    between atoms: _423  and  _424
REMARK  183  A    between atoms: _427  and  _429
REMARK  184  A    between atoms: _429  and  _430
REMARK  185  A    between atoms: _429  and  _432
REMARK  186  A    between atoms: _432  and  _433
REMARK  187  A    between atoms: _433  and  _434
REMARK  188  A    between atoms: _434  and  _435
REMARK  189  A    between atoms: _444  and  _446
REMARK  190  A    between atoms: _446  and  _447
REMARK  191  A    between atoms: _446  and  _449
REMARK  192  A    between atoms: _449  and  _450
REMARK  193  A    between atoms: _450  and  _451
REMARK  194  A    between atoms: _451  and  _452
REMARK  195  A    between atoms: _452  and  _453
REMARK  196  A    between atoms: _457  and  _459
REMARK  197  A    between atoms: _459  and  _460
REMARK  198  A    between atoms: _459  and  _462
REMARK  199  A    between atoms: _462  and  _463
REMARK  200  A    between atoms: _468  and  _469
REMARK  201  A    between atoms: _471  and  _473
REMARK  202  A    between atoms: _473  and  _474
REMARK  203  A    between atoms: _476  and  _478
REMARK  204  A    between atoms: _478  and  _479
REMARK  205  A    between atoms: _478  and  _481
REMARK  206  A    between atoms: _481  and  _482
REMARK  207  A    between atoms: _485  and  _487
REMARK  208  A    between atoms: _487  and  _488
REMARK  209  A    between atoms: _487  and  _490
REMARK  210  A    between atoms: _490  and  _491
REMARK  211  A    between atoms: _496  and  _497
REMARK  212  A    between atoms: _499  and  _501
REMARK  213  A    between atoms: _501  and  _502
REMARK  214  A    between atoms: _501  and  _504
REMARK  215  A    between atoms: _504  and  _505
REMARK                            x       y       z     vdW  Elec       q    Type
REMARK                         _______ _______ _______ _____ _____    ______ ____
ROOT
ATOM      1  CA  VAL A   1       0.844   1.267  36.549  0.00  0.00    +0.133 C 
ENDROOT
BRANCH   1   2
ATOM      2  CB  VAL A   1       0.781   1.877  35.117  0.00  0.00    +0.023 C 
ATOM      3  CG2 VAL A   1       0.506   3.366  35.180  0.00  0.00    +0.002 C 
ATOM      4  CG1 VAL A   1       2.041   1.591  34.329  0.00  0.00    +0.002 C 
ENDBRANCH   1   2
BRANCH   1   5
ATOM      5  N   VAL A   1       2.128   1.499  37.173  0.00  0.00    -0.239 NA
ATOM      6  H   VAL A   1       2.976   1.046  36.775  0.00  0.00    +0.142 HD
ENDBRANCH   1   5
BRANCH   1   7
ATOM      7  C   VAL A   1       0.528  -0.213  36.459  0.00  0.00    +0.224 C 
ATOM      8  O   VAL A   1       1.302  -1.007  35.896  0.00  0.00    -0.287 OA
ENDBRANCH   1   7
TORSDOF 3
REMARK  Name = ../refined-set-2016/2vvv/2vvv_pocket.pdb
REMARK  215 active torsions:
REMARK  status: ('A' for Active; 'I' for Inactive)
REMARK    1  A    between atoms: _1  and  _5
REMARK    2  A    between atoms: _5  and  _6
REMARK    3  A    between atoms: _5  and  _8
REMARK    4  A    between atoms: _8  and  _9
REMARK    5  A    between atoms: _12  and  _14
REMARK    6  A    between atoms: _14  and  _15
REMARK    7  A    between atoms: _14  and  _17
REMARK    8  A    between atoms: _20  and  _22
REMARK    9  A    between atoms: _22  and  _23
REMARK   10  A    between atoms: _22  and  _25
REMARK   11  A    between atoms: _25  and  _26
REMARK   12  A    between atoms: _31  and  _33
REMARK   13  A    between atoms: _33  and  _34
REMARK   14  A    between atoms: _33  and  _36
REMARK   15  A    between atoms: _36  and  _37
REMARK   16  A    between atoms: _37  and  _38
REMARK   17  A    between atoms: _43  and  _45
REMARK   18  A    between atoms: _45  and  _46
REMARK   19  A    between atoms: _45  and  _48
REMARK   20  A    between atoms: _48  and  _49
REMARK   21  A    between atoms: _52  and  _54
REMARK   22  A    between atoms: _54  and  _55
REMARK   23  A    between atoms: _54  and  _57
REMARK   24  A    between atoms: _57  and  _58
REMARK   25  A    between atoms: _58  and  _59
REMARK   26  A    between atoms: _59  and  _60
REMARK   27  A    between atoms: _60  and  _61
REMARK   28  A    between atoms: _65  and  _67
REMARK   29  A    between atoms: _67  and  _68
REMARK   30  A    between atoms: _67  and  _70
REMARK   31  A    between atoms: _70  and  _71
REMARK   32  A    between atoms: _71  and  _72
REMARK   33  A    between atoms: _75  and  _77
REMARK   34  A    between atoms: _77  and  _78
REMARK   35  A    between atoms: _77  and  _80
REMARK   36  A    between atoms: _80  and  _81
REMARK   37  A    between atoms: _84  and  _86
REMARK   38  A    between atoms: _86  and  _87
REMARK   39  A    between atoms: _86  and  _89
REMARK   40  A    between atoms: _89  and  _90
REMARK   41  A    between atoms: _95  and  _96
REMARK   42  A    between atoms: _98  and  _100
REMARK   43  A    between atoms: _100  and  _101
REMARK   44  A    between atoms: _100  and  _103
REMARK   45  A    between atoms: _103  and  _104
REMARK   46  A    between atoms: _107  and  _109
REMARK   47  A    between atoms: _109  and  _110
REMARK   48  A    between atoms: _109  and  _112
REMARK   49  A    between atoms: _112  and  _113
REMARK   50  A    between atoms: _116  and  _118
REMARK   51  A    between atoms: _118  and  _119
REMARK   52  A    between atoms: _118  and  _121
REMARK   53  A    between atoms: _124  and  _126
REMARK   54  A    between atoms: _126  and  _127
REMARK   55  A    between atoms: _126  and  _129
REMARK   56  A    between atoms: _129  and  _130
REMARK   57  A    between atoms: _130  and  _131
REMARK   58  A    between atoms: _131  and  _132
REMARK   59  A    between atoms: _141  and  _143
REMARK   60  A    between atoms: _143  and  _144
REMARK   61  A    between atoms: _143  and  _146
REMARK   62  A    between atoms: _146  and  _147
REMARK   63  A    between atoms: _147  and  _148
REMARK   64  A    between atoms: _151  and  _153
REMARK   65  A    between atoms: _153  and  _154
REMARK   66  A    between atoms: _153  and  _156
REMARK   67  A    between atoms: _156  and  _157
REMARK   68  A    between atoms: _157  and  _158
REMARK   69  A    between atoms: _158  and  _159
REMARK   70  A    between atoms: _159  and  _160
REMARK   71  A    between atoms: _164  and  _166
REMARK   72  A    between atoms: _166  and  _167
REMARK   73  A    between atoms: _166  and  _169
REMARK   74  A    between atoms: _172  and  _174
REMARK   75  A    between atoms: _174  and  _175
REMARK   76  A    between atoms: _174  and  _177
REMARK   77  A    between atoms: _177  and  _178
REMARK   78  A    between atoms: _180  and  _182
REMARK   79  A    between atoms: _182  and  _183
REMARK   80  A    between atoms: _182  and  _185
REMARK   81  A    between atoms: _185  and  _186
REMARK   82  A    between atoms: _188  and  _190
REMARK   83  A    between atoms: _190  and  _191
REMARK   84  A    between atoms: _190  and  _193
REMARK   85  A    between atoms: _193  and  _194
REMARK   86  A    between atoms: _200  and  _202
REMARK   87  A    between atoms: _202  and  _203
REMARK   88  A    between atoms: _202  and  _205
REMARK   89  A    between atoms: _205  and  _206
REMARK   90  A    between atoms: _209  and  _211
REMARK   91  A    between atoms: _211  and  _212
REMARK   92  A    between atoms: _211  and  _214
REMARK   93  A    between atoms: _214  and  _215
REMARK   94  A    between atoms: _218  and  _220
REMARK   95  A    between atoms: _220  and  _221
REMARK   96  A    between atoms: _220  and  _223
REMARK   97  A    between atoms: _223  and  _224
REMARK   98  A    between atoms: _227  and  _229
REMARK   99  A    between atoms: _229  and  _230
REMARK  100  A    between atoms: _229  and  _232
REMARK  101  A    between atoms: _232  and  _233
REMARK  102  A    between atoms: _233  and  _234
REMARK  103  A    between atoms: _236  and  _238
REMARK  104  A    between atoms: _238  and  _239
REMARK  105  A    between atoms: _238  and  _241
REMARK  106  A    between atoms: _241  and  _242
REMARK  107  A    between atoms: _248  and  _250
REMARK  108  A    between atoms: _250  and  _251
REMARK  109  A    between atoms: _250  and  _253
REMARK  110  A    between atoms: _255  and  _257
REMARK  111  A    between atoms: _257  and  _258
REMARK  112  A    between atoms: _261  and  _263
REMARK  113  A    between atoms: _263  and  _264
REMARK  114  A    between atoms: _266  and  _268
REMARK  115  A    between atoms: _268  and  _269
REMARK  116  A    between atoms: _268  and  _271
REMARK  117  A    between atoms: _271  and  _272
REMARK  118  A    between atoms: _272  and  _273
REMARK  119  A    between atoms: _276  and  _278
REMARK  120  A    between atoms: _278  and  _279
REMARK  121  A    between atoms: _278  and  _281
REMARK  122  A    between atoms: _281  and  _282
REMARK  123  A    between atoms: _285  and  _287
REMARK  124  A    between atoms: _287  and  _288
REMARK  125  A    between atoms: _291  and  _293
REMARK  126  A    between atoms: _293  and  _294
REMARK  127  A    between atoms: _293  and  _296
REMARK  128  A    between atoms: _296  and  _297
REMARK  129  A    between atoms: _297  and  _420
REMARK  130  A    between atoms: _298  and  _300
REMARK  131  A    between atoms: _300  and  _301
REMARK  132  A    between atoms: _300  and  _303
REMARK  133  A    between atoms: _303  and  _304
REMARK  134  A    between atoms: _304  and  _305
REMARK  135  A    between atoms: _310  and  _312
REMARK  136  A    between atoms: _312  and  _313
REMARK  137  A    between atoms: _315  and  _317
REMARK  138  A    between atoms: _317  and  _318
REMARK  139  A    between atoms: _317  and  _320
REMARK  140  A    between atoms: _320  and  _321
REMARK  141  A    between atoms: _324  and  _326
REMARK  142  A    between atoms: _326  and  _327
REMARK  143  A    between atoms: _326  and  _329
REMARK  144  A    between atoms: _329  and  _330
REMARK  145  A    between atoms: _332  and  _334
REMARK  146  A    between atoms: _334  and  _335
REMARK  147  A    between atoms: _337  and  _339
REMARK  148  A    between atoms: _339  and  _340
REMARK  149  A    between atoms: _342  and  _344
REMARK  150  A    between atoms: _344  and  _345
REMARK  151  A    between atoms: _344  and  _347
REMARK  152  A    between atoms: _347  and  _348
REMARK  153  A    between atoms: _353  and  _355
REMARK  154  A    between atoms: _355  and  _356
REMARK  155  A    between atoms: _355  and  _358
REMARK  156  A    between atoms: _358  and  _359
REMARK  157  A    between atoms: _362  and  _364
REMARK  158  A    between atoms: _364  and  _365
REMARK  159  A    between atoms: _364  and  _367
REMARK  160  A    between atoms: _370  and  _372
REMARK  161  A    between atoms: _372  and  _373
REMARK  162  A    between atoms: _372  and  _375
REMARK  163  A    between atoms: _375  and  _376
REMARK  164  A    between atoms: _378  and  _380
REMARK  165  A    between atoms: _380  and  _381
REMARK  166  A    between atoms: _380  and  _383
REMARK  167  A    between atoms: _383  and  _384
REMARK  168  A    between atoms: _394  and  _396
REMARK  169  A    between atoms: _396  and  _397
REMARK  170  A    between atoms: _399  and  _401
REMARK  171  A    between atoms: _401  and  _402
REMARK  172  A    between atoms: _401  and  _404
REMARK  173  A    between atoms: _404  and  _405
REMARK  174  A    between atoms: _405  and  _406
REMARK  175  A    between atoms: _409  and  _411
REMARK  176  A    between atoms: _411  and  _412
REMARK  177  A    between atoms: _414  and  _416
REMARK  178  A    between atoms: _416  and  _417
REMARK  179  A    between atoms: _416  and  _419
REMARK  180  A    between atoms: _419  and  _420
REMARK  181  A    between atoms: _421  and  _423
REMARK  182  A    between atoms: _423  and  _424
REMARK  183  A    between atoms: _427  and  _429
REMARK  184  A    between atoms: _429  and  _430
REMARK  185  A    between atoms: _429  and  _432
REMARK  186  A    between atoms: _432  and  _433
REMARK  187  A    between atoms: _433  and  _434
REMARK  188  A    between atoms: _434  and  _435
REMARK  189  A    between atoms: _444  and  _446
REMARK  190  A    between atoms: _446  and  _447
REMARK  191  A    between atoms: _446  and  _449
REMARK  192  A    between atoms: _449  and  _450
REMARK  193  A    between atoms: _450  and  _451
REMARK  194  A    between atoms: _451  and  _452
REMARK  195  A    between atoms: _452  and  _453
REMARK  196  A    between atoms: _457  and  _459
REMARK  197  A    between atoms: _459  and  _460
REMARK  198  A    between atoms: _459  and  _462
REMARK  199  A    between atoms: _462  and  _463
REMARK  200  A    between atoms: _468  and  _469
REMARK  201  A    between atoms: _471  and  _473
REMARK  202  A    between atoms: _473  and  _474
REMARK  203  A    between atoms: _476  and  _478
REMARK  204  A    between atoms: _478  and  _479
REMARK  205  A    between atoms: _478  and  _481
REMARK  206  A    between atoms: _481  and  _482
REMARK  207  A    between atoms: _485  and  _487
REMARK  208  A    between atoms: _487  and  _488
REMARK  209  A    between atoms: _487  and  _490
REMARK  210  A    between atoms: _490  and  _491
REMARK  211  A    between atoms: _496  and  _497
REMARK  212  A    between atoms: _499  and  _501
REMARK  213  A    between atoms: _501  and  _502
REMARK  214  A    between atoms: _501  and  _504
REMARK  215  A    between atoms: _504  and  _505
REMARK                            x       y       z     vdW  Elec       q    Type
REMARK                         _______ _______ _______ _____ _____    ______ ____
ROOT
ATOM      1  C   PHE A   3     -10.438   0.914  19.499  0.00  0.00    +0.241 C 
ATOM      2  O   PHE A   3     -10.384   0.322  20.583  0.00  0.00    -0.273 OA
ATOM      3  N   ILE A   4     -10.063   0.353  18.353  0.00  0.00    -0.297 N 
ATOM      4  H   ILE A   4     -10.059   0.914  17.478  0.00  0.00    +0.150 HD
ENDROOT
BRANCH   3   5
ATOM      5  CA  ILE A   4      -9.660  -1.039  18.321  0.00  0.00    +0.149 C 
BRANCH   5   6
ATOM      6  C   ILE A   4      -8.304  -1.214  18.976  0.00  0.00    +0.241 C 
ATOM      7  N   ILE A   5      -8.254  -2.117  19.941  0.00  0.00    -0.297 N 
ATOM      8  H   ILE A   5      -9.138  -2.560  20.264  0.00  0.00    +0.150 HD
ATOM      9  O   ILE A   4      -7.341  -0.547  18.616  0.00  0.00    -0.273 OA
BRANCH   7  10
ATOM     10  CA  ILE A   5      -7.006  -2.506  20.561  0.00  0.00    +0.149 C 
BRANCH  10  11
ATOM     11  C   ILE A   5      -6.487  -3.704  19.802  0.00  0.00    +0.241 C 
ATOM     12  O   ILE A   5      -7.073  -4.777  19.880  0.00  0.00    -0.273 OA
ATOM     13  N   THR A   6      -5.387  -3.536  19.077  0.00  0.00    -0.296 N 
ATOM     14  H   THR A   6      -4.958  -2.591  19.004  0.00  0.00    +0.150 HD
BRANCH  13  15
ATOM     15  CA  THR A   6      -4.766  -4.676  18.373  0.00  0.00    +0.164 C 
BRANCH  15  16
ATOM     16  CB  THR A   6      -3.904  -4.204  17.191  0.00  0.00    +0.136 C 
ATOM     17  CG2 THR A   6      -4.667  -3.210  16.331  0.00  0.00    +0.034 C 
BRANCH  16  18
ATOM     18  OG1 THR A   6      -2.709  -3.573  17.685  0.00  0.00    -0.382 OA
ATOM     19  HG1 THR A   6      -2.157  -3.271  16.921  0.00  0.00    +0.210 HD
ENDBRANCH  16  18
ENDBRANCH  15  16
BRANCH  15  20
ATOM     20  C   THR A   6      -3.881  -5.526  19.298  0.00  0.00    +0.229 C 
ATOM     21  O   THR A   6      -3.663  -5.187  20.461  0.00  0.00    -0.286 OA
ENDBRANCH  15  20
ENDBRANCH  13  15
ENDBRANCH  10  11
BRANCH  10  22
ATOM     22  CB  ILE A   5      -7.254  -2.929  22.018  0.00  0.00    +0.027 C 
ATOM     23  CG2 ILE A   5      -5.980  -3.564  22.650  0.00  0.00    +0.002 C 
BRANCH  22  24
ATOM     24  CG1 ILE A   5      -7.877  -1.776  22.799  0.00  0.00    +0.002 C 
ATOM     25  CD1 ILE A   5      -7.148  -0.439  22.645  0.00  0.00    +0.000 C 
ENDBRANCH  22  24
ENDBRANCH  10  22
ENDBRANCH   7  10
ENDBRANCH   5   6
BRANCH   5  26
ATOM     26  CB  ILE A   4      -9.585  -1.580  16.906  0.00  0.00    +0.027 C 
ATOM     27  CG2 ILE A   4      -9.048  -2.988  16.904  0.00  0.00    +0.002 C 
BRANCH  26  28
ATOM     28  CG1 ILE A   4     -10.972  -1.547  16.279  0.00  0.00    +0.002 C 
ATOM     29  CD1 ILE A   4     -10.942  -1.841  14.774  0.00  0.00    +0.000 C 
ENDBRANCH  26  28
ENDBRANCH   5  26
ENDBRANCH   3   5
BRANCH   1  30
ATOM     30  CA  PHE A   3     -10.955   2.338  19.424  0.00  0.00    +0.153 C 
BRANCH  30  32
ATOM     31  C   SER A   2     -12.983   3.127  20.555  0.00  0.00    +0.243 C 
ATOM     32  N   PHE A   3     -11.751   2.639  20.614  0.00  0.00    -0.297 N 
ATOM     33  H   PHE A   3     -11.332   2.462  21.549  0.00  0.00    +0.150 HD
ATOM     34  O   SER A   2     -13.560   3.392  19.494  0.00  0.00    -0.273 OA
BRANCH  31  35
ATOM     35  CA  SER A   2     -13.675   3.328  21.894  0.00  0.00    +0.178 C 
BRANCH  35  37
ATOM     36  C   SER A   1     -12.800   1.666  23.421  0.00  0.00    +0.241 C 
ATOM     37  N   SER A   2     -12.825   2.917  22.992  0.00  0.00    -0.295 N 
ATOM     38  H   SER A   2     -12.219   3.624  23.455  0.00  0.00    +0.150 HD
ATOM     39  O   SER A   1     -13.514   0.778  22.963  0.00  0.00    -0.274 OA
BRANCH  36  40
ATOM     40  CA  SER A   1     -11.769   1.366  24.493  0.00  0.00    +0.174 C 
BRANCH  40  41
ATOM     41  N   SER A   1     -12.327   0.534  25.529  0.00  0.00    -0.236 NA
ATOM     42  H   SER A   1     -12.403  -0.492  25.375  0.00  0.00    +0.142 HD
ENDBRANCH  40  41
BRANCH  40  43
ATOM     43  CB  SER A   1     -10.568   0.677  23.844  0.00  0.00    +0.163 C 
BRANCH  43  44
ATOM     44  OG  SER A   1     -10.034   1.498  22.821  0.00  0.00    -0.380 OA
ATOM     45  H   SER A   1     -10.728   1.660  22.134  0.00  0.00    +0.211 HD
ENDBRANCH  43  44
ENDBRANCH  40  43
ENDBRANCH  36  40
ENDBRANCH  35  37
BRANCH  35  46
ATOM     46  CB  SER A   2     -14.082   4.770  22.083  0.00  0.00    +0.166 C 
BRANCH  46  47
ATOM     47  OG  SER A   2     -14.875   4.866  23.257  0.00  0.00    -0.380 OA
ATOM     48  H   SER A   2     -15.149   5.808  23.393  0.00  0.00    +0.211 HD
ENDBRANCH  46  47
ENDBRANCH  35  46
ENDBRANCH  31  35
ENDBRANCH  30  32
BRANCH  30  49
ATOM     49  CB  PHE A   3      -9.775   3.301  19.310  0.00  0.00    +0.055 C 
BRANCH  49  50
ATOM     50  CG  PHE A   3     -10.183   4.746  19.224  0.00  0.00    -0.020 A 
ATOM     51  CD2 PHE A   3     -10.405   5.495  20.387  0.00  0.00    -0.004 A 
ATOM     52  CE2 PHE A   3     -10.787   6.806  20.321  0.00  0.00    -0.000 A 
ATOM     53  CZ  PHE A   3     -10.983   7.401  19.074  0.00  0.00    -0.000 A 
ATOM     54  CE1 PHE A   3     -10.775   6.678  17.927  0.00  0.00    -0.000 A 
ATOM     55  CD1 PHE A   3     -10.379   5.357  17.990  0.00  0.00    -0.004 A 
ENDBRANCH  49  50
ENDBRANCH  30  49
ENDBRANCH   1  30
TORSDOF 24
REMARK  Name = ../refined-set-2016/2vvv/2vvv_pocket.pdb
REMARK  215 active torsions:
REMARK  status: ('A' for Active; 'I' for Inactive)
REMARK    1  A    between atoms: _1  and  _5
REMARK    2  A    between atoms: _5  and  _6
REMARK    3  A    between atoms: _5  and  _8
REMARK    4  A    between atoms: _8  and  _9
REMARK    5  A    between atoms: _12  and  _14
REMARK    6  A    between atoms: _14  and  _15
REMARK    7  A    between atoms: _14  and  _17
REMARK    8  A    between atoms: _20  and  _22
REMARK    9  A    between atoms: _22  and  _23
REMARK   10  A    between atoms: _22  and  _25
REMARK   11  A    between atoms: _25  and  _26
REMARK   12  A    between atoms: _31  and  _33
REMARK   13  A    between atoms: _33  and  _34
REMARK   14  A    between atoms: _33  and  _36
REMARK   15  A    between atoms: _36  and  _37
REMARK   16  A    between atoms: _37  and  _38
REMARK   17  A    between atoms: _43  and  _45
REMARK   18  A    between atoms: _45  and  _46
REMARK   19  A    between atoms: _45  and  _48
REMARK   20  A    between atoms: _48  and  _49
REMARK   21  A    between atoms: _52  and  _54
REMARK   22  A    between atoms: _54  and  _55
REMARK   23  A    between atoms: _54  and  _57
REMARK   24  A    between atoms: _57  and  _58
REMARK   25  A    between atoms: _58  and  _59
REMARK   26  A    between atoms: _59  and  _60
REMARK   27  A    between atoms: _60  and  _61
REMARK   28  A    between atoms: _65  and  _67
REMARK   29  A    between atoms: _67  and  _68
REMARK   30  A    between atoms: _67  and  _70
REMARK   31  A    between atoms: _70  and  _71
REMARK   32  A    between atoms: _71  and  _72
REMARK   33  A    between atoms: _75  and  _77
REMARK   34  A    between atoms: _77  and  _78
REMARK   35  A    between atoms: _77  and  _80
REMARK   36  A    between atoms: _80  and  _81
REMARK   37  A    between atoms: _84  and  _86
REMARK   38  A    between atoms: _86  and  _87
REMARK   39  A    between atoms: _86  and  _89
REMARK   40  A    between atoms: _89  and  _90
REMARK   41  A    between atoms: _95  and  _96
REMARK   42  A    between atoms: _98  and  _100
REMARK   43  A    between atoms: _100  and  _101
REMARK   44  A    between atoms: _100  and  _103
REMARK   45  A    between atoms: _103  and  _104
REMARK   46  A    between atoms: _107  and  _109
REMARK   47  A    between atoms: _109  and  _110
REMARK   48  A    between atoms: _109  and  _112
REMARK   49  A    between atoms: _112  and  _113
REMARK   50  A    between atoms: _116  and  _118
REMARK   51  A    between atoms: _118  and  _119
REMARK   52  A    between atoms: _118  and  _121
REMARK   53  A    between atoms: _124  and  _126
REMARK   54  A    between atoms: _126  and  _127
REMARK   55  A    between atoms: _126  and  _129
REMARK   56  A    between atoms: _129  and  _130
REMARK   57  A    between atoms: _130  and  _131
REMARK   58  A    between atoms: _131  and  _132
REMARK   59  A    between atoms: _141  and  _143
REMARK   60  A    between atoms: _143  and  _144
REMARK   61  A    between atoms: _143  and  _146
REMARK   62  A    between atoms: _146  and  _147
REMARK   63  A    between atoms: _147  and  _148
REMARK   64  A    between atoms: _151  and  _153
REMARK   65  A    between atoms: _153  and  _154
REMARK   66  A    between atoms: _153  and  _156
REMARK   67  A    between atoms: _156  and  _157
REMARK   68  A    between atoms: _157  and  _158
REMARK   69  A    between atoms: _158  and  _159
REMARK   70  A    between atoms: _159  and  _160
REMARK   71  A    between atoms: _164  and  _166
REMARK   72  A    between atoms: _166  and  _167
REMARK   73  A    between atoms: _166  and  _169
REMARK   74  A    between atoms: _172  and  _174
REMARK   75  A    between atoms: _174  and  _175
REMARK   76  A    between atoms: _174  and  _177
REMARK   77  A    between atoms: _177  and  _178
REMARK   78  A    between atoms: _180  and  _182
REMARK   79  A    between atoms: _182  and  _183
REMARK   80  A    between atoms: _182  and  _185
REMARK   81  A    between atoms: _185  and  _186
REMARK   82  A    between atoms: _188  and  _190
REMARK   83  A    between atoms: _190  and  _191
REMARK   84  A    between atoms: _190  and  _193
REMARK   85  A    between atoms: _193  and  _194
REMARK   86  A    between atoms: _200  and  _202
REMARK   87  A    between atoms: _202  and  _203
REMARK   88  A    between atoms: _202  and  _205
REMARK   89  A    between atoms: _205  and  _206
REMARK   90  A    between atoms: _209  and  _211
REMARK   91  A    between atoms: _211  and  _212
REMARK   92  A    between atoms: _211  and  _214
REMARK   93  A    between atoms: _214  and  _215
REMARK   94  A    between atoms: _218  and  _220
REMARK   95  A    between atoms: _220  and  _221
REMARK   96  A    between atoms: _220  and  _223
REMARK   97  A    between atoms: _223  and  _224
REMARK   98  A    between atoms: _227  and  _229
REMARK   99  A    between atoms: _229  and  _230
REMARK  100  A    between atoms: _229  and  _232
REMARK  101  A    between atoms: _232  and  _233
REMARK  102  A    between atoms: _233  and  _234
REMARK  103  A    between atoms: _236  and  _238
REMARK  104  A    between atoms: _238  and  _239
REMARK  105  A    between atoms: _238  and  _241
REMARK  106  A    between atoms: _241  and  _242
REMARK  107  A    between atoms: _248  and  _250
REMARK  108  A    between atoms: _250  and  _251
REMARK  109  A    between atoms: _250  and  _253
REMARK  110  A    between atoms: _255  and  _257
REMARK  111  A    between atoms: _257  and  _258
REMARK  112  A    between atoms: _261  and  _263
REMARK  113  A    between atoms: _263  and  _264
REMARK  114  A    between atoms: _266  and  _268
REMARK  115  A    between atoms: _268  and  _269
REMARK  116  A    between atoms: _268  and  _271
REMARK  117  A    between atoms: _271  and  _272
REMARK  118  A    between atoms: _272  and  _273
REMARK  119  A    between atoms: _276  and  _278
REMARK  120  A    between atoms: _278  and  _279
REMARK  121  A    between atoms: _278  and  _281
REMARK  122  A    between atoms: _281  and  _282
REMARK  123  A    between atoms: _285  and  _287
REMARK  124  A    between atoms: _287  and  _288
REMARK  125  A    between atoms: _291  and  _293
REMARK  126  A    between atoms: _293  and  _294
REMARK  127  A    between atoms: _293  and  _296
REMARK  128  A    between atoms: _296  and  _297
REMARK  129  A    between atoms: _297  and  _420
REMARK  130  A    between atoms: _298  and  _300
REMARK  131  A    between atoms: _300  and  _301
REMARK  132  A    between atoms: _300  and  _303
REMARK  133  A    between atoms: _303  and  _304
REMARK  134  A    between atoms: _304  and  _305
REMARK  135  A    between atoms: _310  and  _312
REMARK  136  A    between atoms: _312  and  _313
REMARK  137  A    between atoms: _315  and  _317
REMARK  138  A    between atoms: _317  and  _318
REMARK  139  A    between atoms: _317  and  _320
REMARK  140  A    between atoms: _320  and  _321
REMARK  141  A    between atoms: _324  and  _326
REMARK  142  A    between atoms: _326  and  _327
REMARK  143  A    between atoms: _326  and  _329
REMARK  144  A    between atoms: _329  and  _330
REMARK  145  A    between atoms: _332  and  _334
REMARK  146  A    between atoms: _334  and  _335
REMARK  147  A    between atoms: _337  and  _339
REMARK  148  A    between atoms: _339  and  _340
REMARK  149  A    between atoms: _342  and  _344
REMARK  150  A    between atoms: _344  and  _345
REMARK  151  A    between atoms: _344  and  _347
REMARK  152  A    between atoms: _347  and  _348
REMARK  153  A    between atoms: _353  and  _355
REMARK  154  A    between atoms: _355  and  _356
REMARK  155  A    between atoms: _355  and  _358
REMARK  156  A    between atoms: _358  and  _359
REMARK  157  A    between atoms: _362  and  _364
REMARK  158  A    between atoms: _364  and  _365
REMARK  159  A    between atoms: _364  and  _367
REMARK  160  A    between atoms: _370  and  _372
REMARK  161  A    between atoms: _372  and  _373
REMARK  162  A    between atoms: _372  and  _375
REMARK  163  A    between atoms: _375  and  _376
REMARK  164  A    between atoms: _378  and  _380
REMARK  165  A    between atoms: _380  and  _381
REMARK  166  A    between atoms: _380  and  _383
REMARK  167  A    between atoms: _383  and  _384
REMARK  168  A    between atoms: _394  and  _396
REMARK  169  A    between atoms: _396  and  _397
REMARK  170  A    between atoms: _399  and  _401
REMARK  171  A    between atoms: _401  and  _402
REMARK  172  A    between atoms: _401  and  _404
REMARK  173  A    between atoms: _404  and  _405
REMARK  174  A    between atoms: _405  and  _406
REMARK  175  A    between atoms: _409  and  _411
REMARK  176  A    between atoms: _411  and  _412
REMARK  177  A    between atoms: _414  and  _416
REMARK  178  A    between atoms: _416  and  _417
REMARK  179  A    between atoms: _416  and  _419
REMARK  180  A    between atoms: _419  and  _420
REMARK  181  A    between atoms: _421  and  _423
REMARK  182  A    between atoms: _423  and  _424
REMARK  183  A    between atoms: _427  and  _429
REMARK  184  A    between atoms: _429  and  _430
REMARK  185  A    between atoms: _429  and  _432
REMARK  186  A    between atoms: _432  and  _433
REMARK  187  A    between atoms: _433  and  _434
REMARK  188  A    between atoms: _434  and  _435
REMARK  189  A    between atoms: _444  and  _446
REMARK  190  A    between atoms: _446  and  _447
REMARK  191  A    between atoms: _446  and  _449
REMARK  192  A    between atoms: _449  and  _450
REMARK  193  A    between atoms: _450  and  _451
REMARK  194  A    between atoms: _451  and  _452
REMARK  195  A    between atoms: _452  and  _453
REMARK  196  A    between atoms: _457  and  _459
REMARK  197  A    between atoms: _459  and  _460
REMARK  198  A    between atoms: _459  and  _462
REMARK  199  A    between atoms: _462  and  _463
REMARK  200  A    between atoms: _468  and  _469
REMARK  201  A    between atoms: _471  and  _473
REMARK  202  A    between atoms: _473  and  _474
REMARK  203  A    between atoms: _476  and  _478
REMARK  204  A    between atoms: _478  and  _479
REMARK  205  A    between atoms: _478  and  _481
REMARK  206  A    between atoms: _481  and  _482
REMARK  207  A    between atoms: _485  and  _487
REMARK  208  A    between atoms: _487  and  _488
REMARK  209  A    between atoms: _487  and  _490
REMARK  210  A    between atoms: _490  and  _491
REMARK  211  A    between atoms: _496  and  _497
REMARK  212  A    between atoms: _499  and  _501
REMARK  213  A    between atoms: _501  and  _502
REMARK  214  A    between atoms: _501  and  _504
REMARK  215  A    between atoms: _504  and  _505
REMARK                            x       y       z     vdW  Elec       q    Type
REMARK                         _______ _______ _______ _____ _____    ______ ____
ROOT
ATOM      1  C   PHE A   2      -2.156  -2.167  26.654  0.00  0.00    +0.241 C 
ATOM      2  N   CYS A   3      -3.047  -2.392  27.619  0.00  0.00    -0.296 N 
ATOM      3  H   CYS A   3      -3.435  -3.352  27.720  0.00  0.00    +0.150 HD
ATOM      4  O   PHE A   2      -1.677  -1.063  26.406  0.00  0.00    -0.273 OA
ENDROOT
BRANCH   2   5
ATOM      5  CA  CYS A   3      -3.508  -1.350  28.547  0.00  0.00    +0.160 C 
BRANCH   5   6
ATOM      6  C   CYS A   3      -2.750  -1.485  29.848  0.00  0.00    +0.242 C 
ATOM      7  N   ALA A   4      -2.549  -0.353  30.492  0.00  0.00    -0.297 N 
ATOM      8  H   ALA A   4      -2.787   0.548  30.031  0.00  0.00    +0.150 HD
ATOM      9  O   CYS A   3      -2.427  -2.596  30.300  0.00  0.00    -0.273 OA
BRANCH   7  10
ATOM     10  CA  ALA A   4      -1.996  -0.345  31.846  0.00  0.00    +0.149 C 
ATOM     11  CB  ALA A   4      -0.484  -0.290  31.809  0.00  0.00    +0.031 C 
BRANCH  10  12
ATOM     12  C   ALA A   4      -2.533   0.900  32.527  0.00  0.00    +0.241 C 
ATOM     13  N   GLY A   5      -2.623   0.838  33.850  0.00  0.00    -0.296 N 
ATOM     14  H   GLY A   5      -2.334  -0.032  34.341  0.00  0.00    +0.150 HD
ATOM     15  O   ALA A   4      -2.862   1.896  31.863  0.00  0.00    -0.273 OA
BRANCH  13  16
ATOM     16  CA  GLY A   5      -3.118   1.962  34.625  0.00  0.00    +0.163 C 
BRANCH  16  17
ATOM     17  C   GLY A   5      -4.310   1.585  35.478  0.00  0.00    +0.229 C 
ATOM     18  O   GLY A   5      -4.406   0.453  35.985  0.00  0.00    -0.286 OA
ENDBRANCH  16  17
ENDBRANCH  13  16
ENDBRANCH  10  12
ENDBRANCH   7  10
ENDBRANCH   5   6
BRANCH   5  19
ATOM     19  CB  CYS A   3      -4.982  -1.577  28.920  0.00  0.00    +0.098 C 
ATOM     20  SG  CYS A   3      -6.254  -0.993  27.792  0.00  0.00    -0.080 S 
ENDBRANCH   5  19
ENDBRANCH   2   5
BRANCH   1  21
ATOM     21  CA  PHE A   2      -1.791  -3.367  25.795  0.00  0.00    +0.153 C 
BRANCH  21  23
ATOM     22  C   MET A   1      -1.537  -3.598  23.366  0.00  0.00    +0.238 C 
ATOM     23  N   PHE A   2      -1.289  -2.925  24.489  0.00  0.00    -0.297 N 
ATOM     24  H   PHE A   2      -0.720  -2.056  24.438  0.00  0.00    +0.150 HD
ATOM     25  O   MET A   1      -2.052  -4.720  23.349  0.00  0.00    -0.274 OA
BRANCH  22  26
ATOM     26  CA  MET A   1      -1.158  -2.906  22.087  0.00  0.00    +0.146 C 
BRANCH  26  27
ATOM     27  N   MET A   1      -0.837  -3.890  21.059  0.00  0.00    -0.238 NA
ATOM     28  H   MET A   1      -1.488  -4.689  20.918  0.00  0.00    +0.142 HD
ENDBRANCH  26  27
BRANCH  26  29
ATOM     29  CB  MET A   1      -2.355  -2.056  21.675  0.00  0.00    +0.038 C 
BRANCH  29  30
ATOM     30  CG  MET A   1      -2.164  -1.259  20.403  0.00  0.00    +0.060 C 
BRANCH  30  31
ATOM     31  SD  MET A   1      -3.720  -0.549  19.940  0.00  0.00    -0.139 S 
ATOM     32  CE  MET A   1      -3.258   0.043  18.288  0.00  0.00    +0.069 C 
ENDBRANCH  30  31
ENDBRANCH  29  30
ENDBRANCH  26  29
ENDBRANCH  22  26
ENDBRANCH  21  23
BRANCH  21  33
ATOM     33  CB  PHE A   2      -0.818  -4.318  26.518  0.00  0.00    +0.055 C 
BRANCH  33  34
ATOM     34  CG  PHE A   2       0.411  -3.658  27.090  0.00  0.00    -0.020 A 
ATOM     35  CD2 PHE A   2       0.411  -3.180  28.403  0.00  0.00    -0.004 A 
ATOM     36  CE2 PHE A   2       1.579  -2.602  28.961  0.00  0.00    -0.000 A 
ATOM     37  CZ  PHE A   2       2.725  -2.469  28.163  0.00  0.00    -0.000 A 
ATOM     38  CE1 PHE A   2       2.714  -2.938  26.851  0.00  0.00    -0.000 A 
ATOM     39  CD1 PHE A   2       1.562  -3.525  26.323  0.00  0.00    -0.004 A 
ENDBRANCH  33  34
ENDBRANCH  21  33
ENDBRANCH   1  21
TORSDOF 16
REMARK  Name = ../refined-set-2016/2vvv/2vvv_pocket.pdb
REMARK  215 active torsions:
REMARK  status: ('A' for Active; 'I' for Inactive)
REMARK    1  A    between atoms: _1  and  _5
REMARK    2  A    between atoms: _5  and  _6
REMARK    3  A    between atoms: _5  and  _8
REMARK    4  A    between atoms: _8  and  _9
REMARK    5  A    between atoms: _12  and  _14
REMARK    6  A    between atoms: _14  and  _15
REMARK    7  A    between atoms: _14  and  _17
REMARK    8  A    between atoms: _20  and  _22
REMARK    9  A    between atoms: _22  and  _23
REMARK   10  A    between atoms: _22  and  _25
REMARK   11  A    between atoms: _25  and  _26
REMARK   12  A    between atoms: _31  and  _33
REMARK   13  A    between atoms: _33  and  _34
REMARK   14  A    between atoms: _33  and  _36
REMARK   15  A    between atoms: _36  and  _37
REMARK   16  A    between atoms: _37  and  _38
REMARK   17  A    between atoms: _43  and  _45
REMARK   18  A    between atoms: _45  and  _46
REMARK   19  A    between atoms: _45  and  _48
REMARK   20  A    between atoms: _48  and  _49
REMARK   21  A    between atoms: _52  and  _54
REMARK   22  A    between atoms: _54  and  _55
REMARK   23  A    between atoms: _54  and  _57
REMARK   24  A    between atoms: _57  and  _58
REMARK   25  A    between atoms: _58  and  _59
REMARK   26  A    between atoms: _59  and  _60
REMARK   27  A    between atoms: _60  and  _61
REMARK   28  A    between atoms: _65  and  _67
REMARK   29  A    between atoms: _67  and  _68
REMARK   30  A    between atoms: _67  and  _70
REMARK   31  A    between atoms: _70  and  _71
REMARK   32  A    between atoms: _71  and  _72
REMARK   33  A    between atoms: _75  and  _77
REMARK   34  A    between atoms: _77  and  _78
REMARK   35  A    between atoms: _77  and  _80
REMARK   36  A    between atoms: _80  and  _81
REMARK   37  A    between atoms: _84  and  _86
REMARK   38  A    between atoms: _86  and  _87
REMARK   39  A    between atoms: _86  and  _89
REMARK   40  A    between atoms: _89  and  _90
REMARK   41  A    between atoms: _95  and  _96
REMARK   42  A    between atoms: _98  and  _100
REMARK   43  A    between atoms: _100  and  _101
REMARK   44  A    between atoms: _100  and  _103
REMARK   45  A    between atoms: _103  and  _104
REMARK   46  A    between atoms: _107  and  _109
REMARK   47  A    between atoms: _109  and  _110
REMARK   48  A    between atoms: _109  and  _112
REMARK   49  A    between atoms: _112  and  _113
REMARK   50  A    between atoms: _116  and  _118
REMARK   51  A    between atoms: _118  and  _119
REMARK   52  A    between atoms: _118  and  _121
REMARK   53  A    between atoms: _124  and  _126
REMARK   54  A    between atoms: _126  and  _127
REMARK   55  A    between atoms: _126  and  _129
REMARK   56  A    between atoms: _129  and  _130
REMARK   57  A    between atoms: _130  and  _131
REMARK   58  A    between atoms: _131  and  _132
REMARK   59  A    between atoms: _141  and  _143
REMARK   60  A    between atoms: _143  and  _144
REMARK   61  A    between atoms: _143  and  _146
REMARK   62  A    between atoms: _146  and  _147
REMARK   63  A    between atoms: _147  and  _148
REMARK   64  A    between atoms: _151  and  _153
REMARK   65  A    between atoms: _153  and  _154
REMARK   66  A    between atoms: _153  and  _156
REMARK   67  A    between atoms: _156  and  _157
REMARK   68  A    between atoms: _157  and  _158
REMARK   69  A    between atoms: _158  and  _159
REMARK   70  A    between atoms: _159  and  _160
REMARK   71  A    between atoms: _164  and  _166
REMARK   72  A    between atoms: _166  and  _167
REMARK   73  A    between atoms: _166  and  _169
REMARK   74  A    between atoms: _172  and  _174
REMARK   75  A    between atoms: _174  and  _175
REMARK   76  A    between atoms: _174  and  _177
REMARK   77  A    between atoms: _177  and  _178
REMARK   78  A    between atoms: _180  and  _182
REMARK   79  A    between atoms: _182  and  _183
REMARK   80  A    between atoms: _182  and  _185
REMARK   81  A    between atoms: _185  and  _186
REMARK   82  A    between atoms: _188  and  _190
REMARK   83  A    between atoms: _190  and  _191
REMARK   84  A    between atoms: _190  and  _193
REMARK   85  A    between atoms: _193  and  _194
REMARK   86  A    between atoms: _200  and  _202
REMARK   87  A    between atoms: _202  and  _203
REMARK   88  A    between atoms: _202  and  _205
REMARK   89  A    between atoms: _205  and  _206
REMARK   90  A    between atoms: _209  and  _211
REMARK   91  A    between atoms: _211  and  _212
REMARK   92  A    between atoms: _211  and  _214
REMARK   93  A    between atoms: _214  and  _215
REMARK   94  A    between atoms: _218  and  _220
REMARK   95  A    between atoms: _220  and  _221
REMARK   96  A    between atoms: _220  and  _223
REMARK   97  A    between atoms: _223  and  _224
REMARK   98  A    between atoms: _227  and  _229
REMARK   99  A    between atoms: _229  and  _230
REMARK  100  A    between atoms: _229  and  _232
REMARK  101  A    between atoms: _232  and  _233
REMARK  102  A    between atoms: _233  and  _234
REMARK  103  A    between atoms: _236  and  _238
REMARK  104  A    between atoms: _238  and  _239
REMARK  105  A    between atoms: _238  and  _241
REMARK  106  A    between atoms: _241  and  _242
REMARK  107  A    between atoms: _248  and  _250
REMARK  108  A    between atoms: _250  and  _251
REMARK  109  A    between atoms: _250  and  _253
REMARK  110  A    between atoms: _255  and  _257
REMARK  111  A    between atoms: _257  and  _258
REMARK  112  A    between atoms: _261  and  _263
REMARK  113  A    between atoms: _263  and  _264
REMARK  114  A    between atoms: _266  and  _268
REMARK  115  A    between atoms: _268  and  _269
REMARK  116  A    between atoms: _268  and  _271
REMARK  117  A    between atoms: _271  and  _272
REMARK  118  A    between atoms: _272  and  _273
REMARK  119  A    between atoms: _276  and  _278
REMARK  120  A    between atoms: _278  and  _279
REMARK  121  A    between atoms: _278  and  _281
REMARK  122  A    between atoms: _281  and  _282
REMARK  123  A    between atoms: _285  and  _287
REMARK  124  A    between atoms: _287  and  _288
REMARK  125  A    between atoms: _291  and  _293
REMARK  126  A    between atoms: _293  and  _294
REMARK  127  A    between atoms: _293  and  _296
REMARK  128  A    between atoms: _296  and  _297
REMARK  129  A    between atoms: _297  and  _420
REMARK  130  A    between atoms: _298  and  _300
REMARK  131  A    between atoms: _300  and  _301
REMARK  132  A    between atoms: _300  and  _303
REMARK  133  A    between atoms: _303  and  _304
REMARK  134  A    between atoms: _304  and  _305
REMARK  135  A    between atoms: _310  and  _312
REMARK  136  A    between atoms: _312  and  _313
REMARK  137  A    between atoms: _315  and  _317
REMARK  138  A    between atoms: _317  and  _318
REMARK  139  A    between atoms: _317  and  _320
REMARK  140  A    between atoms: _320  and  _321
REMARK  141  A    between atoms: _324  and  _326
REMARK  142  A    between atoms: _326  and  _327
REMARK  143  A    between atoms: _326  and  _329
REMARK  144  A    between atoms: _329  and  _330
REMARK  145  A    between atoms: _332  and  _334
REMARK  146  A    between atoms: _334  and  _335
REMARK  147  A    between atoms: _337  and  _339
REMARK  148  A    between atoms: _339  and  _340
REMARK  149  A    between atoms: _342  and  _344
REMARK  150  A    between atoms: _344  and  _345
REMARK  151  A    between atoms: _344  and  _347
REMARK  152  A    between atoms: _347  and  _348
REMARK  153  A    between atoms: _353  and  _355
REMARK  154  A    between atoms: _355  and  _356
REMARK  155  A    between atoms: _355  and  _358
REMARK  156  A    between atoms: _358  and  _359
REMARK  157  A    between atoms: _362  and  _364
REMARK  158  A    between atoms: _364  and  _365
REMARK  159  A    between atoms: _364  and  _367
REMARK  160  A    between atoms: _370  and  _372
REMARK  161  A    between atoms: _372  and  _373
REMARK  162  A    between atoms: _372  and  _375
REMARK  163  A    between atoms: _375  and  _376
REMARK  164  A    between atoms: _378  and  _380
REMARK  165  A    between atoms: _380  and  _381
REMARK  166  A    between atoms: _380  and  _383
REMARK  167  A    between atoms: _383  and  _384
REMARK  168  A    between atoms: _394  and  _396
REMARK  169  A    between atoms: _396  and  _397
REMARK  170  A    between atoms: _399  and  _401
REMARK  171  A    between atoms: _401  and  _402
REMARK  172  A    between atoms: _401  and  _404
REMARK  173  A    between atoms: _404  and  _405
REMARK  174  A    between atoms: _405  and  _406
REMARK  175  A    between atoms: _409  and  _411
REMARK  176  A    between atoms: _411  and  _412
REMARK  177  A    between atoms: _414  and  _416
REMARK  178  A    between atoms: _416  and  _417
REMARK  179  A    between atoms: _416  and  _419
REMARK  180  A    between atoms: _419  and  _420
REMARK  181  A    between atoms: _421  and  _423
REMARK  182  A    between atoms: _423  and  _424
REMARK  183  A    between atoms: _427  and  _429
REMARK  184  A    between atoms: _429  and  _430
REMARK  185  A    between atoms: _429  and  _432
REMARK  186  A    between atoms: _432  and  _433
REMARK  187  A    between atoms: _433  and  _434
REMARK  188  A    between atoms: _434  and  _435
REMARK  189  A    between atoms: _444  and  _446
REMARK  190  A    between atoms: _446  and  _447
REMARK  191  A    between atoms: _446  and  _449
REMARK  192  A    between atoms: _449  and  _450
REMARK  193  A    between atoms: _450  and  _451
REMARK  194  A    between atoms: _451  and  _452
REMARK  195  A    between atoms: _452  and  _453
REMARK  196  A    between atoms: _457  and  _459
REMARK  197  A    between atoms: _459  and  _460
REMARK  198  A    between atoms: _459  and  _462
REMARK  199  A    between atoms: _462  and  _463
REMARK  200  A    between atoms: _468  and  _469
REMARK  201  A    between atoms: _471  and  _473
REMARK  202  A    between atoms: _473  and  _474
REMARK  203  A    between atoms: _476  and  _478
REMARK  204  A    between atoms: _478  and  _479
REMARK  205  A    between atoms: _478  and  _481
REMARK  206  A    between atoms: _481  and  _482
REMARK  207  A    between atoms: _485  and  _487
REMARK  208  A    between atoms: _487  and  _488
REMARK  209  A    between atoms: _487  and  _490
REMARK  210  A    between atoms: _490  and  _491
REMARK  211  A    between atoms: _496  and  _497
REMARK  212  A    between atoms: _499  and  _501
REMARK  213  A    between atoms: _501  and  _502
REMARK  214  A    between atoms: _501  and  _504
REMARK  215  A    between atoms: _504  and  _505
REMARK                            x       y       z     vdW  Elec       q    Type
REMARK                         _______ _______ _______ _____ _____    ______ ____
ROOT
ATOM      1  CA  SER A   8      -5.534  11.119  30.565  0.00  0.00    +0.160 C 
ENDROOT
BRANCH   1   2
ATOM      2  N   SER A   8      -6.487  11.642  29.591  0.00  0.00    -0.296 N 
ATOM      3  H   SER A   8      -7.158  12.380  29.884  0.00  0.00    +0.150 HD
ATOM      4  C   ASP A   7      -6.518  11.200  28.342  0.00  0.00    +0.243 C 
ATOM      5  O   ASP A   7      -5.695  10.397  27.882  0.00  0.00    -0.273 OA
BRANCH   4   6
ATOM      6  CA  ASP A   7      -7.654  11.723  27.485  0.00  0.00    +0.176 C 
BRANCH   6   7
ATOM      7  N   ASP A   7      -7.844  10.815  26.374  0.00  0.00    -0.295 N 
ATOM      8  C   GLY A   6      -8.576   9.714  26.498  0.00  0.00    +0.241 C 
ATOM      9  O   GLY A   6      -9.182   9.429  27.530  0.00  0.00    -0.273 OA
ATOM     10  H   ASP A   7      -7.398  11.029  25.459  0.00  0.00    +0.150 HD
BRANCH   8  11
ATOM     11  CA  GLY A   6      -8.578   8.776  25.306  0.00  0.00    +0.149 C 
BRANCH  11  12
ATOM     12  N   GLY A   6      -7.429   7.902  25.452  0.00  0.00    -0.297 N 
ATOM     13  H   GLY A   6      -7.553   6.985  25.927  0.00  0.00    +0.150 HD
ATOM     14  C   GLN A   5      -6.231   8.231  25.003  0.00  0.00    +0.243 C 
ATOM     15  O   GLN A   5      -5.996   9.222  24.316  0.00  0.00    -0.273 OA
BRANCH  14  16
ATOM     16  CA  GLN A   5      -5.112   7.293  25.397  0.00  0.00    +0.176 C 
BRANCH  16  17
ATOM     17  N   GLN A   5      -4.051   7.458  24.450  0.00  0.00    -0.295 N 
ATOM     18  C   TRP A   4      -3.091   6.548  24.337  0.00  0.00    +0.241 C 
ATOM     19  O   TRP A   4      -2.964   5.596  25.109  0.00  0.00    -0.273 OA
ATOM     20  H   GLN A   5      -4.032   8.302  23.843  0.00  0.00    +0.150 HD
BRANCH  18  21
ATOM     21  CA  TRP A   4      -2.129   6.776  23.207  0.00  0.00    +0.153 C 
BRANCH  21  22
ATOM     22  N   TRP A   4      -0.974   5.881  23.273  0.00  0.00    -0.297 N 
ATOM     23  H   TRP A   4      -1.030   5.018  23.850  0.00  0.00    +0.150 HD
ATOM     24  C   SER A   3       0.149   6.151  22.607  0.00  0.00    +0.243 C 
ATOM     25  O   SER A   3       0.274   7.165  21.877  0.00  0.00    -0.273 OA
BRANCH  24  26
ATOM     26  CA  SER A   3       1.300   5.149  22.744  0.00  0.00    +0.178 C 
BRANCH  26  27
ATOM     27  N   SER A   3       1.855   4.972  24.091  0.00  0.00    -0.295 N 
ATOM     28  H   SER A   3       1.291   4.516  24.836  0.00  0.00    +0.150 HD
ATOM     29  C   VAL A   2       3.094   5.403  24.349  0.00  0.00    +0.241 C 
ATOM     30  O   VAL A   2       3.775   6.022  23.510  0.00  0.00    -0.273 OA
BRANCH  29  31
ATOM     31  CA  VAL A   2       3.686   5.070  25.731  0.00  0.00    +0.148 C 
BRANCH  31  32
ATOM     32  N   VAL A   2       4.875   4.239  25.507  0.00  0.00    -0.297 N 
ATOM     33  H   VAL A   2       5.792   4.555  25.882  0.00  0.00    +0.150 HD
ATOM     34  C   ILE A   1       4.807   3.086  24.833  0.00  0.00    +0.238 C 
ATOM     35  O   ILE A   1       3.727   2.608  24.445  0.00  0.00    -0.274 OA
BRANCH  34  36
ATOM     36  CA  ILE A   1       6.115   2.333  24.597  0.00  0.00    +0.145 C 
BRANCH  36  37
ATOM     37  CB  ILE A   1       6.495   2.393  23.076  0.00  0.00    +0.025 C 
ATOM     38  CG2 ILE A   1       6.704   3.857  22.663  0.00  0.00    +0.002 C 
BRANCH  37  39
ATOM     39  CG1 ILE A   1       7.762   1.587  22.832  0.00  0.00    +0.002 C 
ATOM     40  CD1 ILE A   1       7.964   1.249  21.318  0.00  0.00    +0.000 C 
ENDBRANCH  37  39
ENDBRANCH  36  37
BRANCH  36  41
ATOM     41  N   ILE A   1       5.924   0.953  25.031  0.00  0.00    -0.238 NA
ATOM     42  H   ILE A   1       5.172   0.401  24.571  0.00  0.00    +0.142 HD
ENDBRANCH  36  41
ENDBRANCH  34  36
ENDBRANCH  31  32
BRANCH  31  43
ATOM     43  CB  VAL A   2       4.048   6.364  26.515  0.00  0.00    +0.027 C 
ATOM     44  CG2 VAL A   2       4.641   6.010  27.902  0.00  0.00    +0.002 C 
ATOM     45  CG1 VAL A   2       2.808   7.246  26.705  0.00  0.00    +0.002 C 
ENDBRANCH  31  43
ENDBRANCH  29  31
ENDBRANCH  26  27
BRANCH  26  46
ATOM     46  CB  SER A   3       0.965   3.771  22.133  0.00  0.00    +0.166 C 
BRANCH  46  47
ATOM     47  OG  SER A   3       0.579   3.903  20.757  0.00  0.00    -0.380 OA
ATOM     48  H   SER A   3       0.369   3.009  20.387  0.00  0.00    +0.211 HD
ENDBRANCH  46  47
ENDBRANCH  26  46
ENDBRANCH  24  26
ENDBRANCH  21  22
BRANCH  21  49
ATOM     49  CB  TRP A   4      -2.872   6.642  21.868  0.00  0.00    +0.057 C 
BRANCH  49  50
ATOM     50  CG  TRP A   4      -3.372   5.253  21.556  0.00  0.00    -0.002 A 
ATOM     51  CD2 TRP A   4      -4.703   4.762  21.743  0.00  0.00    +0.013 A 
ATOM     52  CE3 TRP A   4      -5.878   5.320  22.261  0.00  0.00    +0.001 A 
ATOM     53  CZ3 TRP A   4      -7.038   4.537  22.297  0.00  0.00    +0.000 A 
ATOM     54  CH2 TRP A   4      -7.020   3.195  21.853  0.00  0.00    +0.001 A 
ATOM     55  CZ2 TRP A   4      -5.875   2.618  21.369  0.00  0.00    +0.017 A 
ATOM     56  CE2 TRP A   4      -4.719   3.415  21.315  0.00  0.00    +0.056 A 
ATOM     57  NE1 TRP A   4      -3.458   3.104  20.880  0.00  0.00    -0.352 N 
ATOM     58  HE1 TRP A   4      -3.157   2.180  20.510  0.00  0.00    +0.166 HD
ATOM     59  CD1 TRP A   4      -2.654   4.215  21.013  0.00  0.00    +0.068 A 
ENDBRANCH  49  50
ENDBRANCH  21  49
ENDBRANCH  18  21
ENDBRANCH  16  17
ENDBRANCH  14  16
ENDBRANCH  11  12
BRANCH  11  60
ATOM     60  CB  GLY A   6      -9.856   7.929  25.251  0.00  0.00    +0.041 C 
BRANCH  60  61
ATOM     61  CG  GLY A   6      -9.841   6.913  24.121  0.00  0.00    +0.116 C 
BRANCH  61  62
ATOM     62  CD  GLY A   6     -11.097   6.071  24.061  0.00  0.00    +0.365 C 
ATOM     63  OE2 GLY A   6     -12.212   6.651  24.074  0.00  0.00    -0.246 OA
ATOM     64  OE1 GLY A   6     -10.989   4.835  23.995  0.00  0.00    -0.246 OA
ENDBRANCH  61  62
ENDBRANCH  60  61
ENDBRANCH  11  60
ENDBRANCH   8  11
ENDBRANCH   6   7
ENDBRANCH   4   6
ENDBRANCH   1   2
BRANCH   1  65
ATOM     65  C   SER A   8      -6.228  10.899  31.899  0.00  0.00    +0.242 C 
ATOM     66  N   GLY A   9      -6.027   9.710  32.461  0.00  0.00    -0.297 N 
ATOM     67  H   GLY A   9      -5.421   9.023  31.969  0.00  0.00    +0.150 HD
ATOM     68  O   SER A   8      -6.928  11.786  32.412  0.00  0.00    -0.273 OA
BRANCH  66  69
ATOM     69  CA  GLY A   9      -6.622   9.327  33.743  0.00  0.00    +0.149 C 
ATOM     70  CB  GLY A   9      -6.007  10.145  34.878  0.00  0.00    +0.031 C 
BRANCH  69  71
ATOM     71  C   GLY A   9      -8.140   9.453  33.770  0.00  0.00    +0.241 C 
ATOM     72  O   GLY A   9      -8.722   9.659  34.831  0.00  0.00    -0.273 OA
ATOM     73  N   GLY A  10      -8.787   9.353  32.619  0.00  0.00    -0.298 N 
ATOM     74  H   GLY A  10      -8.261   9.306  31.723  0.00  0.00    +0.150 HD
BRANCH  73  75
ATOM     75  CA  GLY A  10     -10.243   9.310  32.619  0.00  0.00    +0.137 C 
BRANCH  75  76
ATOM     76  C   GLY A  10     -10.801   8.076  33.298  0.00  0.00    +0.227 C 
ATOM     77  O   GLY A  10     -10.218   6.981  33.243  0.00  0.00    -0.286 OA
ENDBRANCH  75  76
BRANCH  75  78
ATOM     78  CB  GLY A  10     -10.769   9.364  31.192  0.00  0.00    +0.031 C 
BRANCH  78  79
ATOM     79  CG  GLY A  10     -10.795  10.746  30.650  0.00  0.00    +0.045 C 
BRANCH  79  80
ATOM     80  CD  GLY A  10     -11.463  10.804  29.274  0.00  0.00    +0.174 C 
BRANCH  80  81
ATOM     81  NE  GLY A  10     -10.949  11.966  28.559  0.00  0.00    -0.265 N 
ATOM     82  HE  GLY A  10     -10.378  12.650  29.095  0.00  0.00    +0.259 HD
ATOM     83  CZ  GLY A  10     -11.159  12.212  27.269  0.00  0.00    +0.342 C 
ATOM     84  NH2 GLY A  10     -10.622  13.287  26.714  0.00  0.00    -0.292 N 
ATOM     85 HH21 GLY A  10     -10.041  13.932  27.286  0.00  0.00    +0.255 HD
ATOM     86 HH22 GLY A  10     -10.781  13.486  25.706  0.00  0.00    +0.255 HD
ATOM     87  NH1 GLY A  10     -11.890  11.382  26.533  0.00  0.00    -0.292 N 
ATOM     88 HH11 GLY A  10     -12.304  10.531  26.965  0.00  0.00    +0.255 HD
ATOM     89 HH12 GLY A  10     -12.049  11.583  25.525  0.00  0.00    +0.255 HD
ENDBRANCH  80  81
ENDBRANCH  79  80
ENDBRANCH  78  79
ENDBRANCH  75  78
ENDBRANCH  73  75
ENDBRANCH  69  71
ENDBRANCH  66  69
ENDBRANCH   1  65
BRANCH   1  90
ATOM     90  CB  SER A   8      -4.364  12.085  30.771  0.00  0.00    +0.098 C 
BRANCH  90  91
ATOM     91  SG  SER A   8      -3.657  12.634  29.253  0.00  0.00    -0.080 S 
BRANCH  91  92
ATOM     92  SG  TRP A   4      -2.161  13.889  29.851  0.00  0.00    -0.080 S 
BRANCH  92  93
ATOM     93  CB  TRP A   4      -0.789  12.759  30.249  0.00  0.00    +0.098 C 
BRANCH  93  94
ATOM     94  CA  TRP A   4      -0.497  11.622  29.258  0.00  0.00    +0.160 C 
BRANCH  94  97
ATOM     95  C   SER A   3      -0.307   9.787  30.824  0.00  0.00    +0.241 C 
ATOM     96  O   SER A   3      -1.513   9.747  31.018  0.00  0.00    -0.273 OA
ATOM     97  N   TRP A   4       0.266  10.618  29.959  0.00  0.00    -0.296 N 
ATOM     98  H   TRP A   4       1.288  10.543  29.783  0.00  0.00    +0.150 HD
BRANCH  95  99
ATOM     99  CA  SER A   3       0.613   8.804  31.525  0.00  0.00    +0.149 C 
ATOM    100  CB  SER A   3       1.331   7.979  30.495  0.00  0.00    +0.031 C 
BRANCH  99 103
ATOM    101  C   VAL A   2      -0.680   8.431  33.525  0.00  0.00    +0.241 C 
ATOM    102  O   VAL A   2      -0.193   9.414  34.024  0.00  0.00    -0.273 OA
ATOM    103  N   SER A   3      -0.234   7.951  32.368  0.00  0.00    -0.297 N 
ATOM    104  H   SER A   3      -0.481   6.987  32.065  0.00  0.00    +0.150 HD
BRANCH 101 105
ATOM    105  CA  VAL A   2      -1.873   7.752  34.180  0.00  0.00    +0.160 C 
BRANCH 105 108
ATOM    106  C   ILE A   1      -2.863   7.725  36.419  0.00  0.00    +0.238 C 
ATOM    107  O   ILE A   1      -3.602   6.787  36.139  0.00  0.00    -0.274 OA
ATOM    108  N   VAL A   2      -1.998   8.250  35.561  0.00  0.00    -0.297 N 
ATOM    109  H   VAL A   2      -1.391   9.035  35.872  0.00  0.00    +0.150 HD
BRANCH 106 110
ATOM    110  CA  ILE A   1      -2.953   8.342  37.788  0.00  0.00    +0.145 C 
BRANCH 110 111
ATOM    111  N   ILE A   1      -4.386   8.461  38.049  0.00  0.00    -0.238 NA
ATOM    112  H   ILE A   1      -5.018   7.696  37.738  0.00  0.00    +0.142 HD
ENDBRANCH 110 111
BRANCH 110 113
ATOM    113  CB  ILE A   1      -2.309   7.394  38.813  0.00  0.00    +0.038 C 
BRANCH 113 114
ATOM    114  CG  ILE A   1      -2.208   7.989  40.232  0.00  0.00    +0.116 C 
BRANCH 114 115
ATOM    115  CD  ILE A   1      -1.198   7.244  41.098  0.00  0.00    +0.365 C 
ATOM    116  OE2 ILE A   1      -0.321   7.931  41.674  0.00  0.00    -0.246 OA
ATOM    117  OE1 ILE A   1      -1.272   5.991  41.172  0.00  0.00    -0.246 OA
ENDBRANCH 114 115
ENDBRANCH 113 114
ENDBRANCH 110 113
ENDBRANCH 106 110
ENDBRANCH 105 108
BRANCH 105 118
ATOM    118  CB  VAL A   2      -3.137   8.179  33.412  0.00  0.00    +0.143 C 
BRANCH 118 119
ATOM    119  CG  VAL A   2      -3.354   7.416  32.087  0.00  0.00    +0.367 C 
ATOM    120  OD2 VAL A   2      -2.518   6.583  31.695  0.00  0.00    -0.246 OA
ATOM    121  OD1 VAL A   2      -4.405   7.659  31.438  0.00  0.00    -0.246 OA
ENDBRANCH 118 119
ENDBRANCH 105 118
ENDBRANCH 101 105
ENDBRANCH  99 103
ENDBRANCH  95  99
ENDBRANCH  94  97
BRANCH  94 122
ATOM    122  C   TRP A   4       0.310  12.115  28.047  0.00  0.00    +0.242 C 
ATOM    123  O   TRP A   4       1.439  11.682  27.811  0.00  0.00    -0.273 OA
ATOM    124  N   GLN A   5      -0.262  13.037  27.288  0.00  0.00    -0.297 N 
ATOM    125  H   GLN A   5      -1.222  13.368  27.514  0.00  0.00    +0.150 HD
BRANCH 124 126
ATOM    126  CA  GLN A   5       0.446  13.595  26.131  0.00  0.00    +0.149 C 
BRANCH 126 127
ATOM    127  C   GLN A   5       1.760  14.219  26.593  0.00  0.00    +0.241 C 
ATOM    128  O   GLN A   5       1.800  14.858  27.637  0.00  0.00    -0.273 OA
ATOM    129  N   GLY A   6       2.845  13.983  25.852  0.00  0.00    -0.295 N 
ATOM    130  H   GLY A   6       2.740  13.445  24.968  0.00  0.00    +0.150 HD
BRANCH 129 131
ATOM    131  CA  GLY A   6       4.168  14.449  26.233  0.00  0.00    +0.176 C 
BRANCH 131 132
ATOM    132  C   GLY A   6       5.018  13.298  26.756  0.00  0.00    +0.243 C 
ATOM    133  N   ASP A   7       4.364  12.304  27.351  0.00  0.00    -0.296 N 
ATOM    134  H   ASP A   7       3.343  12.399  27.526  0.00  0.00    +0.150 HD
ATOM    135  O   GLY A   6       6.226  13.307  26.640  0.00  0.00    -0.273 OA
BRANCH 133 136
ATOM    136  CA  ASP A   7       5.046  11.091  27.760  0.00  0.00    +0.160 C 
BRANCH 136 137
ATOM    137  C   ASP A   7       5.138  10.153  26.573  0.00  0.00    +0.241 C 
ATOM    138  O   ASP A   7       5.954   9.231  26.570  0.00  0.00    -0.273 OA
ATOM    139  N   SER A   8       4.249  10.344  25.597  0.00  0.00    -0.295 N 
ATOM    140  H   SER A   8       3.557  11.114  25.694  0.00  0.00    +0.150 HD
BRANCH 139 141
ATOM    141  CA  SER A   8       4.211   9.505  24.389  0.00  0.00    +0.178 C 
BRANCH 141 142
ATOM    142  C   SER A   8       5.604   9.171  23.861  0.00  0.00    +0.243 C 
ATOM    143  O   SER A   8       6.465  10.032  23.841  0.00  0.00    -0.273 OA
ATOM    144  N   GLY A   9       5.836   7.914  23.457  0.00  0.00    -0.295 N 
ATOM    145  H   GLY A   9       5.057   7.225  23.469  0.00  0.00    +0.150 HD
BRANCH 144 146
ATOM    146  CA  GLY A   9       7.168   7.487  22.997  0.00  0.00    +0.176 C 
BRANCH 146 147
ATOM    147  C   GLY A   9       8.117   7.013  24.079  0.00  0.00    +0.243 C 
ATOM    148  N   GLY A  10       7.778   7.311  25.330  0.00  0.00    -0.296 N 
ATOM    149  H   GLY A  10       6.854   7.748  25.524  0.00  0.00    +0.150 HD
ATOM    150  O   GLY A   9       9.107   6.339  23.796  0.00  0.00    -0.273 OA
BRANCH 148 151
ATOM    151  CA  GLY A  10       8.698   7.028  26.441  0.00  0.00    +0.163 C 
BRANCH 151 152
ATOM    152  C   GLY A  10       8.560   5.600  26.949  0.00  0.00    +0.229 C 
ATOM    153  O   GLY A  10       7.768   4.827  26.446  0.00  0.00    -0.286 OA
ENDBRANCH 151 152
ENDBRANCH 148 151
ENDBRANCH 146 147
ENDBRANCH 144 146
ENDBRANCH 141 142
BRANCH 141 154
ATOM    154  CB  SER A   8       3.387  10.237  23.313  0.00  0.00    +0.166 C 
BRANCH 154 155
ATOM    155  OG  SER A   8       2.404  11.061  23.962  0.00  0.00    -0.380 OA
ATOM    156  H   SER A   8       1.869  11.536  23.277  0.00  0.00    +0.211 HD
ENDBRANCH 154 155
ENDBRANCH 141 154
ENDBRANCH 139 141
ENDBRANCH 136 137
BRANCH 136 157
ATOM    157  CB  ASP A   7       4.251  10.392  28.866  0.00  0.00    +0.143 C 
BRANCH 157 158
ATOM    158  CG  ASP A   7       4.137  11.238  30.119  0.00  0.00    +0.367 C 
ATOM    159  OD2 ASP A   7       3.052  11.278  30.745  0.00  0.00    -0.246 OA
ATOM    160  OD1 ASP A   7       5.173  11.814  30.501  0.00  0.00    -0.246 OA
ENDBRANCH 157 158
ENDBRANCH 136 157
ENDBRANCH 133 136
ENDBRANCH 131 132
ENDBRANCH 129 131
ENDBRANCH 126 127
BRANCH 126 161
ATOM    161  CB  GLN A   5      -0.433  14.624  25.411  0.00  0.00    +0.039 C 
BRANCH 161 162
ATOM    162  CG  GLN A   5      -1.852  14.125  25.071  0.00  0.00    +0.087 C 
BRANCH 162 163
ATOM    163  CD  GLN A   5      -2.541  15.042  24.072  0.00  0.00    +0.219 C 
ATOM    164  OE1 GLN A   5      -3.605  15.598  24.348  0.00  0.00    -0.275 OA
ATOM    165  NE2 GLN A   5      -1.904  15.238  22.911  0.00  0.00    -0.329 N 
ATOM    166 HE21 GLN A   5      -1.007  14.747  22.721  0.00  0.00    +0.145 HD
ATOM    167 HE22 GLN A   5      -2.306  15.881  22.199  0.00  0.00    +0.145 HD
ENDBRANCH 162 163
ENDBRANCH 161 162
ENDBRANCH 126 161
ENDBRANCH 124 126
ENDBRANCH  94 122
ENDBRANCH  93  94
ENDBRANCH  92  93
ENDBRANCH  91  92
ENDBRANCH  90  91
ENDBRANCH   1  90
TORSDOF 71
REMARK  Name = ../refined-set-2016/2vvv/2vvv_pocket.pdb
REMARK  215 active torsions:
REMARK  status: ('A' for Active; 'I' for Inactive)
REMARK    1  A    between atoms: _1  and  _5
REMARK    2  A    between atoms: _5  and  _6
REMARK    3  A    between atoms: _5  and  _8
REMARK    4  A    between atoms: _8  and  _9
REMARK    5  A    between atoms: _12  and  _14
REMARK    6  A    between atoms: _14  and  _15
REMARK    7  A    between atoms: _14  and  _17
REMARK    8  A    between atoms: _20  and  _22
REMARK    9  A    between atoms: _22  and  _23
REMARK   10  A    between atoms: _22  and  _25
REMARK   11  A    between atoms: _25  and  _26
REMARK   12  A    between atoms: _31  and  _33
REMARK   13  A    between atoms: _33  and  _34
REMARK   14  A    between atoms: _33  and  _36
REMARK   15  A    between atoms: _36  and  _37
REMARK   16  A    between atoms: _37  and  _38
REMARK   17  A    between atoms: _43  and  _45
REMARK   18  A    between atoms: _45  and  _46
REMARK   19  A    between atoms: _45  and  _48
REMARK   20  A    between atoms: _48  and  _49
REMARK   21  A    between atoms: _52  and  _54
REMARK   22  A    between atoms: _54  and  _55
REMARK   23  A    between atoms: _54  and  _57
REMARK   24  A    between atoms: _57  and  _58
REMARK   25  A    between atoms: _58  and  _59
REMARK   26  A    between atoms: _59  and  _60
REMARK   27  A    between atoms: _60  and  _61
REMARK   28  A    between atoms: _65  and  _67
REMARK   29  A    between atoms: _67  and  _68
REMARK   30  A    between atoms: _67  and  _70
REMARK   31  A    between atoms: _70  and  _71
REMARK   32  A    between atoms: _71  and  _72
REMARK   33  A    between atoms: _75  and  _77
REMARK   34  A    between atoms: _77  and  _78
REMARK   35  A    between atoms: _77  and  _80
REMARK   36  A    between atoms: _80  and  _81
REMARK   37  A    between atoms: _84  and  _86
REMARK   38  A    between atoms: _86  and  _87
REMARK   39  A    between atoms: _86  and  _89
REMARK   40  A    between atoms: _89  and  _90
REMARK   41  A    between atoms: _95  and  _96
REMARK   42  A    between atoms: _98  and  _100
REMARK   43  A    between atoms: _100  and  _101
REMARK   44  A    between atoms: _100  and  _103
REMARK   45  A    between atoms: _103  and  _104
REMARK   46  A    between atoms: _107  and  _109
REMARK   47  A    between atoms: _109  and  _110
REMARK   48  A    between atoms: _109  and  _112
REMARK   49  A    between atoms: _112  and  _113
REMARK   50  A    between atoms: _116  and  _118
REMARK   51  A    between atoms: _118  and  _119
REMARK   52  A    between atoms: _118  and  _121
REMARK   53  A    between atoms: _124  and  _126
REMARK   54  A    between atoms: _126  and  _127
REMARK   55  A    between atoms: _126  and  _129
REMARK   56  A    between atoms: _129  and  _130
REMARK   57  A    between atoms: _130  and  _131
REMARK   58  A    between atoms: _131  and  _132
REMARK   59  A    between atoms: _141  and  _143
REMARK   60  A    between atoms: _143  and  _144
REMARK   61  A    between atoms: _143  and  _146
REMARK   62  A    between atoms: _146  and  _147
REMARK   63  A    between atoms: _147  and  _148
REMARK   64  A    between atoms: _151  and  _153
REMARK   65  A    between atoms: _153  and  _154
REMARK   66  A    between atoms: _153  and  _156
REMARK   67  A    between atoms: _156  and  _157
REMARK   68  A    between atoms: _157  and  _158
REMARK   69  A    between atoms: _158  and  _159
REMARK   70  A    between atoms: _159  and  _160
REMARK   71  A    between atoms: _164  and  _166
REMARK   72  A    between atoms: _166  and  _167
REMARK   73  A    between atoms: _166  and  _169
REMARK   74  A    between atoms: _172  and  _174
REMARK   75  A    between atoms: _174  and  _175
REMARK   76  A    between atoms: _174  and  _177
REMARK   77  A    between atoms: _177  and  _178
REMARK   78  A    between atoms: _180  and  _182
REMARK   79  A    between atoms: _182  and  _183
REMARK   80  A    between atoms: _182  and  _185
REMARK   81  A    between atoms: _185  and  _186
REMARK   82  A    between atoms: _188  and  _190
REMARK   83  A    between atoms: _190  and  _191
REMARK   84  A    between atoms: _190  and  _193
REMARK   85  A    between atoms: _193  and  _194
REMARK   86  A    between atoms: _200  and  _202
REMARK   87  A    between atoms: _202  and  _203
REMARK   88  A    between atoms: _202  and  _205
REMARK   89  A    between atoms: _205  and  _206
REMARK   90  A    between atoms: _209  and  _211
REMARK   91  A    between atoms: _211  and  _212
REMARK   92  A    between atoms: _211  and  _214
REMARK   93  A    between atoms: _214  and  _215
REMARK   94  A    between atoms: _218  and  _220
REMARK   95  A    between atoms: _220  and  _221
REMARK   96  A    between atoms: _220  and  _223
REMARK   97  A    between atoms: _223  and  _224
REMARK   98  A    between atoms: _227  and  _229
REMARK   99  A    between atoms: _229  and  _230
REMARK  100  A    between atoms: _229  and  _232
REMARK  101  A    between atoms: _232  and  _233
REMARK  102  A    between atoms: _233  and  _234
REMARK  103  A    between atoms: _236  and  _238
REMARK  104  A    between atoms: _238  and  _239
REMARK  105  A    between atoms: _238  and  _241
REMARK  106  A    between atoms: _241  and  _242
REMARK  107  A    between atoms: _248  and  _250
REMARK  108  A    between atoms: _250  and  _251
REMARK  109  A    between atoms: _250  and  _253
REMARK  110  A    between atoms: _255  and  _257
REMARK  111  A    between atoms: _257  and  _258
REMARK  112  A    between atoms: _261  and  _263
REMARK  113  A    between atoms: _263  and  _264
REMARK  114  A    between atoms: _266  and  _268
REMARK  115  A    between atoms: _268  and  _269
REMARK  116  A    between atoms: _268  and  _271
REMARK  117  A    between atoms: _271  and  _272
REMARK  118  A    between atoms: _272  and  _273
REMARK  119  A    between atoms: _276  and  _278
REMARK  120  A    between atoms: _278  and  _279
REMARK  121  A    between atoms: _278  and  _281
REMARK  122  A    between atoms: _281  and  _282
REMARK  123  A    between atoms: _285  and  _287
REMARK  124  A    between atoms: _287  and  _288
REMARK  125  A    between atoms: _291  and  _293
REMARK  126  A    between atoms: _293  and  _294
REMARK  127  A    between atoms: _293  and  _296
REMARK  128  A    between atoms: _296  and  _297
REMARK  129  A    between atoms: _297  and  _420
REMARK  130  A    between atoms: _298  and  _300
REMARK  131  A    between atoms: _300  and  _301
REMARK  132  A    between atoms: _300  and  _303
REMARK  133  A    between atoms: _303  and  _304
REMARK  134  A    between atoms: _304  and  _305
REMARK  135  A    between atoms: _310  and  _312
REMARK  136  A    between atoms: _312  and  _313
REMARK  137  A    between atoms: _315  and  _317
REMARK  138  A    between atoms: _317  and  _318
REMARK  139  A    between atoms: _317  and  _320
REMARK  140  A    between atoms: _320  and  _321
REMARK  141  A    between atoms: _324  and  _326
REMARK  142  A    between atoms: _326  and  _327
REMARK  143  A    between atoms: _326  and  _329
REMARK  144  A    between atoms: _329  and  _330
REMARK  145  A    between atoms: _332  and  _334
REMARK  146  A    between atoms: _334  and  _335
REMARK  147  A    between atoms: _337  and  _339
REMARK  148  A    between atoms: _339  and  _340
REMARK  149  A    between atoms: _342  and  _344
REMARK  150  A    between atoms: _344  and  _345
REMARK  151  A    between atoms: _344  and  _347
REMARK  152  A    between atoms: _347  and  _348
REMARK  153  A    between atoms: _353  and  _355
REMARK  154  A    between atoms: _355  and  _356
REMARK  155  A    between atoms: _355  and  _358
REMARK  156  A    between atoms: _358  and  _359
REMARK  157  A    between atoms: _362  and  _364
REMARK  158  A    between atoms: _364  and  _365
REMARK  159  A    between atoms: _364  and  _367
REMARK  160  A    between atoms: _370  and  _372
REMARK  161  A    between atoms: _372  and  _373
REMARK  162  A    between atoms: _372  and  _375
REMARK  163  A    between atoms: _375  and  _376
REMARK  164  A    between atoms: _378  and  _380
REMARK  165  A    between atoms: _380  and  _381
REMARK  166  A    between atoms: _380  and  _383
REMARK  167  A    between atoms: _383  and  _384
REMARK  168  A    between atoms: _394  and  _396
REMARK  169  A    between atoms: _396  and  _397
REMARK  170  A    between atoms: _399  and  _401
REMARK  171  A    between atoms: _401  and  _402
REMARK  172  A    between atoms: _401  and  _404
REMARK  173  A    between atoms: _404  and  _405
REMARK  174  A    between atoms: _405  and  _406
REMARK  175  A    between atoms: _409  and  _411
REMARK  176  A    between atoms: _411  and  _412
REMARK  177  A    between atoms: _414  and  _416
REMARK  178  A    between atoms: _416  and  _417
REMARK  179  A    between atoms: _416  and  _419
REMARK  180  A    between atoms: _419  and  _420
REMARK  181  A    between atoms: _421  and  _423
REMARK  182  A    between atoms: _423  and  _424
REMARK  183  A    between atoms: _427  and  _429
REMARK  184  A    between atoms: _429  and  _430
REMARK  185  A    between atoms: _429  and  _432
REMARK  186  A    between atoms: _432  and  _433
REMARK  187  A    between atoms: _433  and  _434
REMARK  188  A    between atoms: _434  and  _435
REMARK  189  A    between atoms: _444  and  _446
REMARK  190  A    between atoms: _446  and  _447
REMARK  191  A    between atoms: _446  and  _449
REMARK  192  A    between atoms: _449  and  _450
REMARK  193  A    between atoms: _450  and  _451
REMARK  194  A    between atoms: _451  and  _452
REMARK  195  A    between atoms: _452  and  _453
REMARK  196  A    between atoms: _457  and  _459
REMARK  197  A    between atoms: _459  and  _460
REMARK  198  A    between atoms: _459  and  _462
REMARK  199  A    between atoms: _462  and  _463
REMARK  200  A    between atoms: _468  and  _469
REMARK  201  A    between atoms: _471  and  _473
REMARK  202  A    between atoms: _473  and  _474
REMARK  203  A    between atoms: _476  and  _478
REMARK  204  A    between atoms: _478  and  _479
REMARK  205  A    between atoms: _478  and  _481
REMARK  206  A    between atoms: _481  and  _482
REMARK  207  A    between atoms: _485  and  _487
REMARK  208  A    between atoms: _487  and  _488
REMARK  209  A    between atoms: _487  and  _490
REMARK  210  A    between atoms: _490  and  _491
REMARK  211  A    between atoms: _496  and  _497
REMARK  212  A    between atoms: _499  and  _501
REMARK  213  A    between atoms: _501  and  _502
REMARK  214  A    between atoms: _501  and  _504
REMARK  215  A    between atoms: _504  and  _505
REMARK                            x       y       z     vdW  Elec       q    Type
REMARK                         _______ _______ _______ _____ _____    ______ ____
ROOT
ATOM      1  CB  HIS A   1       5.870   0.961  29.521  0.00  0.00    +0.072 C 
ENDROOT
BRANCH   1   2
ATOM      2  CG  HIS A   1       5.139  -0.018  30.378  0.00  0.00    +0.082 A 
ATOM      3  CD2 HIS A   1       4.013   0.096  31.116  0.00  0.00    +0.115 A 
ATOM      4  NE2 HIS A   1       3.780  -1.135  31.689  0.00  0.00    -0.221 NA
ATOM      5  CE1 HIS A   1       4.756  -1.957  31.348  0.00  0.00    +0.199 A 
ATOM      6  ND1 HIS A   1       5.574  -1.314  30.541  0.00  0.00    -0.227 NA
ENDBRANCH   1   2
BRANCH   1   7
ATOM      7  CA  HIS A   1       7.240   1.399  30.089  0.00  0.00    +0.139 C 
BRANCH   7   8
ATOM      8  N   HIS A   1       7.921   2.178  29.087  0.00  0.00    -0.239 NA
ATOM      9  H   HIS A   1       8.103   1.752  28.156  0.00  0.00    +0.142 HD
ENDBRANCH   7   8
BRANCH   7  10
ATOM     10  C   HIS A   1       8.206   0.231  30.361  0.00  0.00    +0.224 C 
ATOM     11  O   HIS A   1       8.598  -0.506  29.439  0.00  0.00    -0.287 OA
ENDBRANCH   7  10
ENDBRANCH   1   7
TORSDOF 4
REMARK  Name = ../refined-set-2016/2vvv/2vvv_pocket.pdb
REMARK  215 active torsions:
REMARK  status: ('A' for Active; 'I' for Inactive)
REMARK    1  A    between atoms: _1  and  _5
REMARK    2  A    between atoms: _5  and  _6
REMARK    3  A    between atoms: _5  and  _8
REMARK    4  A    between atoms: _8  and  _9
REMARK    5  A    between atoms: _12  and  _14
REMARK    6  A    between atoms: _14  and  _15
REMARK    7  A    between atoms: _14  and  _17
REMARK    8  A    between atoms: _20  and  _22
REMARK    9  A    between atoms: _22  and  _23
REMARK   10  A    between atoms: _22  and  _25
REMARK   11  A    between atoms: _25  and  _26
REMARK   12  A    between atoms: _31  and  _33
REMARK   13  A    between atoms: _33  and  _34
REMARK   14  A    between atoms: _33  and  _36
REMARK   15  A    between atoms: _36  and  _37
REMARK   16  A    between atoms: _37  and  _38
REMARK   17  A    between atoms: _43  and  _45
REMARK   18  A    between atoms: _45  and  _46
REMARK   19  A    between atoms: _45  and  _48
REMARK   20  A    between atoms: _48  and  _49
REMARK   21  A    between atoms: _52  and  _54
REMARK   22  A    between atoms: _54  and  _55
REMARK   23  A    between atoms: _54  and  _57
REMARK   24  A    between atoms: _57  and  _58
REMARK   25  A    between atoms: _58  and  _59
REMARK   26  A    between atoms: _59  and  _60
REMARK   27  A    between atoms: _60  and  _61
REMARK   28  A    between atoms: _65  and  _67
REMARK   29  A    between atoms: _67  and  _68
REMARK   30  A    between atoms: _67  and  _70
REMARK   31  A    between atoms: _70  and  _71
REMARK   32  A    between atoms: _71  and  _72
REMARK   33  A    between atoms: _75  and  _77
REMARK   34  A    between atoms: _77  and  _78
REMARK   35  A    between atoms: _77  and  _80
REMARK   36  A    between atoms: _80  and  _81
REMARK   37  A    between atoms: _84  and  _86
REMARK   38  A    between atoms: _86  and  _87
REMARK   39  A    between atoms: _86  and  _89
REMARK   40  A    between atoms: _89  and  _90
REMARK   41  A    between atoms: _95  and  _96
REMARK   42  A    between atoms: _98  and  _100
REMARK   43  A    between atoms: _100  and  _101
REMARK   44  A    between atoms: _100  and  _103
REMARK   45  A    between atoms: _103  and  _104
REMARK   46  A    between atoms: _107  and  _109
REMARK   47  A    between atoms: _109  and  _110
REMARK   48  A    between atoms: _109  and  _112
REMARK   49  A    between atoms: _112  and  _113
REMARK   50  A    between atoms: _116  and  _118
REMARK   51  A    between atoms: _118  and  _119
REMARK   52  A    between atoms: _118  and  _121
REMARK   53  A    between atoms: _124  and  _126
REMARK   54  A    between atoms: _126  and  _127
REMARK   55  A    between atoms: _126  and  _129
REMARK   56  A    between atoms: _129  and  _130
REMARK   57  A    between atoms: _130  and  _131
REMARK   58  A    between atoms: _131  and  _132
REMARK   59  A    between atoms: _141  and  _143
REMARK   60  A    between atoms: _143  and  _144
REMARK   61  A    between atoms: _143  and  _146
REMARK   62  A    between atoms: _146  and  _147
REMARK   63  A    between atoms: _147  and  _148
REMARK   64  A    between atoms: _151  and  _153
REMARK   65  A    between atoms: _153  and  _154
REMARK   66  A    between atoms: _153  and  _156
REMARK   67  A    between atoms: _156  and  _157
REMARK   68  A    between atoms: _157  and  _158
REMARK   69  A    between atoms: _158  and  _159
REMARK   70  A    between atoms: _159  and  _160
REMARK   71  A    between atoms: _164  and  _166
REMARK   72  A    between atoms: _166  and  _167
REMARK   73  A    between atoms: _166  and  _169
REMARK   74  A    between atoms: _172  and  _174
REMARK   75  A    between atoms: _174  and  _175
REMARK   76  A    between atoms: _174  and  _177
REMARK   77  A    between atoms: _177  and  _178
REMARK   78  A    between atoms: _180  and  _182
REMARK   79  A    between atoms: _182  and  _183
REMARK   80  A    between atoms: _182  and  _185
REMARK   81  A    between atoms: _185  and  _186
REMARK   82  A    between atoms: _188  and  _190
REMARK   83  A    between atoms: _190  and  _191
REMARK   84  A    between atoms: _190  and  _193
REMARK   85  A    between atoms: _193  and  _194
REMARK   86  A    between atoms: _200  and  _202
REMARK   87  A    between atoms: _202  and  _203
REMARK   88  A    between atoms: _202  and  _205
REMARK   89  A    between atoms: _205  and  _206
REMARK   90  A    between atoms: _209  and  _211
REMARK   91  A    between atoms: _211  and  _212
REMARK   92  A    between atoms: _211  and  _214
REMARK   93  A    between atoms: _214  and  _215
REMARK   94  A    between atoms: _218  and  _220
REMARK   95  A    between atoms: _220  and  _221
REMARK   96  A    between atoms: _220  and  _223
REMARK   97  A    between atoms: _223  and  _224
REMARK   98  A    between atoms: _227  and  _229
REMARK   99  A    between atoms: _229  and  _230
REMARK  100  A    between atoms: _229  and  _232
REMARK  101  A    between atoms: _232  and  _233
REMARK  102  A    between atoms: _233  and  _234
REMARK  103  A    between atoms: _236  and  _238
REMARK  104  A    between atoms: _238  and  _239
REMARK  105  A    between atoms: _238  and  _241
REMARK  106  A    between atoms: _241  and  _242
REMARK  107  A    between atoms: _248  and  _250
REMARK  108  A    between atoms: _250  and  _251
REMARK  109  A    between atoms: _250  and  _253
REMARK  110  A    between atoms: _255  and  _257
REMARK  111  A    between atoms: _257  and  _258
REMARK  112  A    between atoms: _261  and  _263
REMARK  113  A    between atoms: _263  and  _264
REMARK  114  A    between atoms: _266  and  _268
REMARK  115  A    between atoms: _268  and  _269
REMARK  116  A    between atoms: _268  and  _271
REMARK  117  A    between atoms: _271  and  _272
REMARK  118  A    between atoms: _272  and  _273
REMARK  119  A    between atoms: _276  and  _278
REMARK  120  A    between atoms: _278  and  _279
REMARK  121  A    between atoms: _278  and  _281
REMARK  122  A    between atoms: _281  and  _282
REMARK  123  A    between atoms: _285  and  _287
REMARK  124  A    between atoms: _287  and  _288
REMARK  125  A    between atoms: _291  and  _293
REMARK  126  A    between atoms: _293  and  _294
REMARK  127  A    between atoms: _293  and  _296
REMARK  128  A    between atoms: _296  and  _297
REMARK  129  A    between atoms: _297  and  _420
REMARK  130  A    between atoms: _298  and  _300
REMARK  131  A    between atoms: _300  and  _301
REMARK  132  A    between atoms: _300  and  _303
REMARK  133  A    between atoms: _303  and  _304
REMARK  134  A    between atoms: _304  and  _305
REMARK  135  A    between atoms: _310  and  _312
REMARK  136  A    between atoms: _312  and  _313
REMARK  137  A    between atoms: _315  and  _317
REMARK  138  A    between atoms: _317  and  _318
REMARK  139  A    between atoms: _317  and  _320
REMARK  140  A    between atoms: _320  and  _321
REMARK  141  A    between atoms: _324  and  _326
REMARK  142  A    between atoms: _326  and  _327
REMARK  143  A    between atoms: _326  and  _329
REMARK  144  A    between atoms: _329  and  _330
REMARK  145  A    between atoms: _332  and  _334
REMARK  146  A    between atoms: _334  and  _335
REMARK  147  A    between atoms: _337  and  _339
REMARK  148  A    between atoms: _339  and  _340
REMARK  149  A    between atoms: _342  and  _344
REMARK  150  A    between atoms: _344  and  _345
REMARK  151  A    between atoms: _344  and  _347
REMARK  152  A    between atoms: _347  and  _348
REMARK  153  A    between atoms: _353  and  _355
REMARK  154  A    between atoms: _355  and  _356
REMARK  155  A    between atoms: _355  and  _358
REMARK  156  A    between atoms: _358  and  _359
REMARK  157  A    between atoms: _362  and  _364
REMARK  158  A    between atoms: _364  and  _365
REMARK  159  A    between atoms: _364  and  _367
REMARK  160  A    between atoms: _370  and  _372
REMARK  161  A    between atoms: _372  and  _373
REMARK  162  A    between atoms: _372  and  _375
REMARK  163  A    between atoms: _375  and  _376
REMARK  164  A    between atoms: _378  and  _380
REMARK  165  A    between atoms: _380  and  _381
REMARK  166  A    between atoms: _380  and  _383
REMARK  167  A    between atoms: _383  and  _384
REMARK  168  A    between atoms: _394  and  _396
REMARK  169  A    between atoms: _396  and  _397
REMARK  170  A    between atoms: _399  and  _401
REMARK  171  A    between atoms: _401  and  _402
REMARK  172  A    between atoms: _401  and  _404
REMARK  173  A    between atoms: _404  and  _405
REMARK  174  A    between atoms: _405  and  _406
REMARK  175  A    between atoms: _409  and  _411
REMARK  176  A    between atoms: _411  and  _412
REMARK  177  A    between atoms: _414  and  _416
REMARK  178  A    between atoms: _416  and  _417
REMARK  179  A    between atoms: _416  and  _419
REMARK  180  A    between atoms: _419  and  _420
REMARK  181  A    between atoms: _421  and  _423
REMARK  182  A    between atoms: _423  and  _424
REMARK  183  A    between atoms: _427  and  _429
REMARK  184  A    between atoms: _429  and  _430
REMARK  185  A    between atoms: _429  and  _432
REMARK  186  A    between atoms: _432  and  _433
REMARK  187  A    between atoms: _433  and  _434
REMARK  188  A    between atoms: _434  and  _435
REMARK  189  A    between atoms: _444  and  _446
REMARK  190  A    between atoms: _446  and  _447
REMARK  191  A    between atoms: _446  and  _449
REMARK  192  A    between atoms: _449  and  _450
REMARK  193  A    between atoms: _450  and  _451
REMARK  194  A    between atoms: _451  and  _452
REMARK  195  A    between atoms: _452  and  _453
REMARK  196  A    between atoms: _457  and  _459
REMARK  197  A    between atoms: _459  and  _460
REMARK  198  A    between atoms: _459  and  _462
REMARK  199  A    between atoms: _462  and  _463
REMARK  200  A    between atoms: _468  and  _469
REMARK  201  A    between atoms: _471  and  _473
REMARK  202  A    between atoms: _473  and  _474
REMARK  203  A    between atoms: _476  and  _478
REMARK  204  A    between atoms: _478  and  _479
REMARK  205  A    between atoms: _478  and  _481
REMARK  206  A    between atoms: _481  and  _482
REMARK  207  A    between atoms: _485  and  _487
REMARK  208  A    between atoms: _487  and  _488
REMARK  209  A    between atoms: _487  and  _490
REMARK  210  A    between atoms: _490  and  _491
REMARK  211  A    between atoms: _496  and  _497
REMARK  212  A    between atoms: _499  and  _501
REMARK  213  A    between atoms: _501  and  _502
REMARK  214  A    between atoms: _501  and  _504
REMARK  215  A    between atoms: _504  and  _505
REMARK                            x       y       z     vdW  Elec       q    Type
REMARK                         _______ _______ _______ _____ _____    ______ ____
ROOT
ATOM      1  C   GLY A   3      -2.906   2.963  28.135  0.00  0.00    +0.243 C 
ATOM      2  O   GLY A   3      -2.893   1.786  28.512  0.00  0.00    -0.273 OA
ATOM      3  N   ILE A   4      -2.736   3.315  26.856  0.00  0.00    -0.297 N 
ATOM      4  H   ILE A   4      -2.806   4.315  26.580  0.00  0.00    +0.150 HD
ENDROOT
BRANCH   3   5
ATOM      5  CA  ILE A   4      -2.452   2.296  25.841  0.00  0.00    +0.149 C 
BRANCH   5   6
ATOM      6  C   ILE A   4      -0.989   2.349  25.385  0.00  0.00    +0.241 C 
ATOM      7  N   TYR A   5      -0.364   1.172  25.328  0.00  0.00    -0.297 N 
ATOM      8  H   TYR A   5      -0.930   0.303  25.409  0.00  0.00    +0.150 HD
ATOM      9  O   ILE A   4      -0.470   3.426  25.060  0.00  0.00    -0.273 OA
BRANCH   7  10
ATOM     10  CA  TYR A   5       1.082   1.051  25.156  0.00  0.00    +0.153 C 
BRANCH  10  11
ATOM     11  C   TYR A   5       1.374   0.099  24.018  0.00  0.00    +0.241 C 
ATOM     12  O   TYR A   5       0.660  -0.908  23.825  0.00  0.00    -0.273 OA
ATOM     13  N   THR A   6       2.456   0.387  23.298  0.00  0.00    -0.296 N 
ATOM     14  H   THR A   6       2.968   1.274  23.476  0.00  0.00    +0.150 HD
BRANCH  13  15
ATOM     15  CA  THR A   6       2.933  -0.520  22.266  0.00  0.00    +0.164 C 
BRANCH  15  16
ATOM     16  C   THR A   6       3.477  -1.741  22.973  0.00  0.00    +0.229 C 
ATOM     17  O   THR A   6       4.264  -1.599  23.914  0.00  0.00    -0.286 OA
ENDBRANCH  15  16
BRANCH  15  18
ATOM     18  CB  THR A   6       4.031   0.153  21.416  0.00  0.00    +0.136 C 
ATOM     19  CG2 THR A   6       4.468  -0.783  20.263  0.00  0.00    +0.034 C 
BRANCH  18  20
ATOM     20  OG1 THR A   6       3.491   1.366  20.894  0.00  0.00    -0.382 OA
ATOM     21  HG1 THR A   6       4.176   1.820  20.343  0.00  0.00    +0.210 HD
ENDBRANCH  18  20
ENDBRANCH  15  18
ENDBRANCH  13  15
ENDBRANCH  10  11
BRANCH  10  22
ATOM     22  CB  TYR A   5       1.728   0.471  26.421  0.00  0.00    +0.055 C 
BRANCH  22  23
ATOM     23  CG  TYR A   5       1.634   1.374  27.621  0.00  0.00    -0.020 A 
ATOM     24  CD2 TYR A   5       0.458   1.424  28.388  0.00  0.00    -0.001 A 
ATOM     25  CE2 TYR A   5       0.356   2.289  29.485  0.00  0.00    +0.036 A 
ATOM     26  CZ  TYR A   5       1.453   3.110  29.823  0.00  0.00    +0.134 A 
ATOM     27  CE1 TYR A   5       2.611   3.072  29.080  0.00  0.00    +0.036 A 
ATOM     28  CD1 TYR A   5       2.683   2.223  27.962  0.00  0.00    -0.001 A 
BRANCH  26  29
ATOM     29  OH  TYR A   5       1.397   3.973  30.905  0.00  0.00    -0.506 OA
ATOM     30  HH  TYR A   5       0.659   4.620  30.772  0.00  0.00    +0.292 HD
ENDBRANCH  26  29
ENDBRANCH  22  23
ENDBRANCH  10  22
ENDBRANCH   7  10
ENDBRANCH   5   6
BRANCH   5  31
ATOM     31  CB  ILE A   4      -3.349   2.441  24.583  0.00  0.00    +0.027 C 
ATOM     32  CG2 ILE A   4      -3.310   1.153  23.741  0.00  0.00    +0.002 C 
BRANCH  31  33
ATOM     33  CG1 ILE A   4      -4.790   2.802  24.968  0.00  0.00    +0.002 C 
ATOM     34  CD1 ILE A   4      -5.557   1.699  25.644  0.00  0.00    +0.000 C 
ENDBRANCH  31  33
ENDBRANCH   5  31
ENDBRANCH   3   5
BRANCH   1  35
ATOM     35  CA  GLY A   3      -3.192   4.059  29.127  0.00  0.00    +0.176 C 
BRANCH  35  37
ATOM     36  C   TYR A   2      -5.575   3.724  29.569  0.00  0.00    +0.241 C 
ATOM     37  N   GLY A   3      -4.310   3.633  29.967  0.00  0.00    -0.295 N 
ATOM     38  H   GLY A   3      -4.108   3.245  30.910  0.00  0.00    +0.150 HD
ATOM     39  O   TYR A   2      -5.920   4.289  28.533  0.00  0.00    -0.273 OA
BRANCH  36  40
ATOM     40  CA  TYR A   2      -6.609   3.099  30.485  0.00  0.00    +0.153 C 
BRANCH  40  43
ATOM     41  C   LYS A   1      -8.805   4.135  30.899  0.00  0.00    +0.238 C 
ATOM     42  O   LYS A   1      -8.524   4.550  32.029  0.00  0.00    -0.274 OA
ATOM     43  N   TYR A   2      -7.963   3.501  30.089  0.00  0.00    -0.297 N 
ATOM     44  H   TYR A   2      -8.281   3.278  29.124  0.00  0.00    +0.150 HD
BRANCH  41  45
ATOM     45  CA  LYS A   1     -10.173   4.418  30.306  0.00  0.00    +0.145 C 
BRANCH  45  46
ATOM     46  N   LYS A   1     -11.141   4.499  31.392  0.00  0.00    -0.238 NA
ATOM     47  H   LYS A   1     -10.957   5.125  32.202  0.00  0.00    +0.142 HD
ENDBRANCH  45  46
BRANCH  45  48
ATOM     48  CB  LYS A   1     -10.082   5.751  29.552  0.00  0.00    +0.026 C 
BRANCH  48  49
ATOM     49  CG  LYS A   1     -11.356   6.179  28.873  0.00  0.00    -0.000 C 
BRANCH  49  50
ATOM     50  CD  LYS A   1     -11.659   5.304  27.673  0.00  0.00    -0.024 C 
BRANCH  50  51
ATOM     51  CE  LYS A   1     -13.057   5.619  27.170  0.00  0.00    -0.086 C 
BRANCH  51  52
ATOM     52  NZ  LYS A   1     -13.386   4.867  25.960  0.00  0.00    +0.380 N 
ATOM     53  HZ1 LYS A   1     -13.335   3.848  26.162  0.00  0.00    -0.089 HD
ATOM     54  HZ2 LYS A   1     -14.348   5.113  25.652  0.00  0.00    -0.089 HD
ATOM     55  HZ3 LYS A   1     -12.708   5.107  25.209  0.00  0.00    -0.089 HD
ENDBRANCH  51  52
ENDBRANCH  50  51
ENDBRANCH  49  50
ENDBRANCH  48  49
ENDBRANCH  45  48
ENDBRANCH  41  45
ENDBRANCH  40  43
BRANCH  40  56
ATOM     56  CB  TYR A   2      -6.483   1.571  30.432  0.00  0.00    +0.055 C 
BRANCH  56  57
ATOM     57  CG  TYR A   2      -7.444   0.874  31.397  0.00  0.00    -0.020 A 
ATOM     58  CD2 TYR A   2      -7.228   0.932  32.764  0.00  0.00    -0.001 A 
ATOM     59  CE2 TYR A   2      -8.067   0.304  33.641  0.00  0.00    +0.036 A 
ATOM     60  CZ  TYR A   2      -9.185  -0.356  33.153  0.00  0.00    +0.134 A 
ATOM     61  CE1 TYR A   2      -9.428  -0.422  31.792  0.00  0.00    +0.036 A 
ATOM     62  CD1 TYR A   2      -8.559   0.187  30.931  0.00  0.00    -0.001 A 
BRANCH  60  63
ATOM     63  OH  TYR A   2     -10.039  -0.976  34.037  0.00  0.00    -0.506 OA
ATOM     64  HH  TYR A   2     -10.063  -1.947  33.845  0.00  0.00    +0.292 HD
ENDBRANCH  60  63
ENDBRANCH  56  57
ENDBRANCH  40  56
ENDBRANCH  36  40
ENDBRANCH  35  37
ENDBRANCH   1  35
TORSDOF 27
REMARK  Name = ../refined-set-2016/2vvv/2vvv_pocket.pdb
REMARK  215 active torsions:
REMARK  status: ('A' for Active; 'I' for Inactive)
REMARK    1  A    between atoms: _1  and  _5
REMARK    2  A    between atoms: _5  and  _6
REMARK    3  A    between atoms: _5  and  _8
REMARK    4  A    between atoms: _8  and  _9
REMARK    5  A    between atoms: _12  and  _14
REMARK    6  A    between atoms: _14  and  _15
REMARK    7  A    between atoms: _14  and  _17
REMARK    8  A    between atoms: _20  and  _22
REMARK    9  A    between atoms: _22  and  _23
REMARK   10  A    between atoms: _22  and  _25
REMARK   11  A    between atoms: _25  and  _26
REMARK   12  A    between atoms: _31  and  _33
REMARK   13  A    between atoms: _33  and  _34
REMARK   14  A    between atoms: _33  and  _36
REMARK   15  A    between atoms: _36  and  _37
REMARK   16  A    between atoms: _37  and  _38
REMARK   17  A    between atoms: _43  and  _45
REMARK   18  A    between atoms: _45  and  _46
REMARK   19  A    between atoms: _45  and  _48
REMARK   20  A    between atoms: _48  and  _49
REMARK   21  A    between atoms: _52  and  _54
REMARK   22  A    between atoms: _54  and  _55
REMARK   23  A    between atoms: _54  and  _57
REMARK   24  A    between atoms: _57  and  _58
REMARK   25  A    between atoms: _58  and  _59
REMARK   26  A    between atoms: _59  and  _60
REMARK   27  A    between atoms: _60  and  _61
REMARK   28  A    between atoms: _65  and  _67
REMARK   29  A    between atoms: _67  and  _68
REMARK   30  A    between atoms: _67  and  _70
REMARK   31  A    between atoms: _70  and  _71
REMARK   32  A    between atoms: _71  and  _72
REMARK   33  A    between atoms: _75  and  _77
REMARK   34  A    between atoms: _77  and  _78
REMARK   35  A    between atoms: _77  and  _80
REMARK   36  A    between atoms: _80  and  _81
REMARK   37  A    between atoms: _84  and  _86
REMARK   38  A    between atoms: _86  and  _87
REMARK   39  A    between atoms: _86  and  _89
REMARK   40  A    between atoms: _89  and  _90
REMARK   41  A    between atoms: _95  and  _96
REMARK   42  A    between atoms: _98  and  _100
REMARK   43  A    between atoms: _100  and  _101
REMARK   44  A    between atoms: _100  and  _103
REMARK   45  A    between atoms: _103  and  _104
REMARK   46  A    between atoms: _107  and  _109
REMARK   47  A    between atoms: _109  and  _110
REMARK   48  A    between atoms: _109  and  _112
REMARK   49  A    between atoms: _112  and  _113
REMARK   50  A    between atoms: _116  and  _118
REMARK   51  A    between atoms: _118  and  _119
REMARK   52  A    between atoms: _118  and  _121
REMARK   53  A    between atoms: _124  and  _126
REMARK   54  A    between atoms: _126  and  _127
REMARK   55  A    between atoms: _126  and  _129
REMARK   56  A    between atoms: _129  and  _130
REMARK   57  A    between atoms: _130  and  _131
REMARK   58  A    between atoms: _131  and  _132
REMARK   59  A    between atoms: _141  and  _143
REMARK   60  A    between atoms: _143  and  _144
REMARK   61  A    between atoms: _143  and  _146
REMARK   62  A    between atoms: _146  and  _147
REMARK   63  A    between atoms: _147  and  _148
REMARK   64  A    between atoms: _151  and  _153
REMARK   65  A    between atoms: _153  and  _154
REMARK   66  A    between atoms: _153  and  _156
REMARK   67  A    between atoms: _156  and  _157
REMARK   68  A    between atoms: _157  and  _158
REMARK   69  A    between atoms: _158  and  _159
REMARK   70  A    between atoms: _159  and  _160
REMARK   71  A    between atoms: _164  and  _166
REMARK   72  A    between atoms: _166  and  _167
REMARK   73  A    between atoms: _166  and  _169
REMARK   74  A    between atoms: _172  and  _174
REMARK   75  A    between atoms: _174  and  _175
REMARK   76  A    between atoms: _174  and  _177
REMARK   77  A    between atoms: _177  and  _178
REMARK   78  A    between atoms: _180  and  _182
REMARK   79  A    between atoms: _182  and  _183
REMARK   80  A    between atoms: _182  and  _185
REMARK   81  A    between atoms: _185  and  _186
REMARK   82  A    between atoms: _188  and  _190
REMARK   83  A    between atoms: _190  and  _191
REMARK   84  A    between atoms: _190  and  _193
REMARK   85  A    between atoms: _193  and  _194
REMARK   86  A    between atoms: _200  and  _202
REMARK   87  A    between atoms: _202  and  _203
REMARK   88  A    between atoms: _202  and  _205
REMARK   89  A    between atoms: _205  and  _206
REMARK   90  A    between atoms: _209  and  _211
REMARK   91  A    between atoms: _211  and  _212
REMARK   92  A    between atoms: _211  and  _214
REMARK   93  A    between atoms: _214  and  _215
REMARK   94  A    between atoms: _218  and  _220
REMARK   95  A    between atoms: _220  and  _221
REMARK   96  A    between atoms: _220  and  _223
REMARK   97  A    between atoms: _223  and  _224
REMARK   98  A    between atoms: _227  and  _229
REMARK   99  A    between atoms: _229  and  _230
REMARK  100  A    between atoms: _229  and  _232
REMARK  101  A    between atoms: _232  and  _233
REMARK  102  A    between atoms: _233  and  _234
REMARK  103  A    between atoms: _236  and  _238
REMARK  104  A    between atoms: _238  and  _239
REMARK  105  A    between atoms: _238  and  _241
REMARK  106  A    between atoms: _241  and  _242
REMARK  107  A    between atoms: _248  and  _250
REMARK  108  A    between atoms: _250  and  _251
REMARK  109  A    between atoms: _250  and  _253
REMARK  110  A    between atoms: _255  and  _257
REMARK  111  A    between atoms: _257  and  _258
REMARK  112  A    between atoms: _261  and  _263
REMARK  113  A    between atoms: _263  and  _264
REMARK  114  A    between atoms: _266  and  _268
REMARK  115  A    between atoms: _268  and  _269
REMARK  116  A    between atoms: _268  and  _271
REMARK  117  A    between atoms: _271  and  _272
REMARK  118  A    between atoms: _272  and  _273
REMARK  119  A    between atoms: _276  and  _278
REMARK  120  A    between atoms: _278  and  _279
REMARK  121  A    between atoms: _278  and  _281
REMARK  122  A    between atoms: _281  and  _282
REMARK  123  A    between atoms: _285  and  _287
REMARK  124  A    between atoms: _287  and  _288
REMARK  125  A    between atoms: _291  and  _293
REMARK  126  A    between atoms: _293  and  _294
REMARK  127  A    between atoms: _293  and  _296
REMARK  128  A    between atoms: _296  and  _297
REMARK  129  A    between atoms: _297  and  _420
REMARK  130  A    between atoms: _298  and  _300
REMARK  131  A    between atoms: _300  and  _301
REMARK  132  A    between atoms: _300  and  _303
REMARK  133  A    between atoms: _303  and  _304
REMARK  134  A    between atoms: _304  and  _305
REMARK  135  A    between atoms: _310  and  _312
REMARK  136  A    between atoms: _312  and  _313
REMARK  137  A    between atoms: _315  and  _317
REMARK  138  A    between atoms: _317  and  _318
REMARK  139  A    between atoms: _317  and  _320
REMARK  140  A    between atoms: _320  and  _321
REMARK  141  A    between atoms: _324  and  _326
REMARK  142  A    between atoms: _326  and  _327
REMARK  143  A    between atoms: _326  and  _329
REMARK  144  A    between atoms: _329  and  _330
REMARK  145  A    between atoms: _332  and  _334
REMARK  146  A    between atoms: _334  and  _335
REMARK  147  A    between atoms: _337  and  _339
REMARK  148  A    between atoms: _339  and  _340
REMARK  149  A    between atoms: _342  and  _344
REMARK  150  A    between atoms: _344  and  _345
REMARK  151  A    between atoms: _344  and  _347
REMARK  152  A    between atoms: _347  and  _348
REMARK  153  A    between atoms: _353  and  _355
REMARK  154  A    between atoms: _355  and  _356
REMARK  155  A    between atoms: _355  and  _358
REMARK  156  A    between atoms: _358  and  _359
REMARK  157  A    between atoms: _362  and  _364
REMARK  158  A    between atoms: _364  and  _365
REMARK  159  A    between atoms: _364  and  _367
REMARK  160  A    between atoms: _370  and  _372
REMARK  161  A    between atoms: _372  and  _373
REMARK  162  A    between atoms: _372  and  _375
REMARK  163  A    between atoms: _375  and  _376
REMARK  164  A    between atoms: _378  and  _380
REMARK  165  A    between atoms: _380  and  _381
REMARK  166  A    between atoms: _380  and  _383
REMARK  167  A    between atoms: _383  and  _384
REMARK  168  A    between atoms: _394  and  _396
REMARK  169  A    between atoms: _396  and  _397
REMARK  170  A    between atoms: _399  and  _401
REMARK  171  A    between atoms: _401  and  _402
REMARK  172  A    between atoms: _401  and  _404
REMARK  173  A    between atoms: _404  and  _405
REMARK  174  A    between atoms: _405  and  _406
REMARK  175  A    between atoms: _409  and  _411
REMARK  176  A    between atoms: _411  and  _412
REMARK  177  A    between atoms: _414  and  _416
REMARK  178  A    between atoms: _416  and  _417
REMARK  179  A    between atoms: _416  and  _419
REMARK  180  A    between atoms: _419  and  _420
REMARK  181  A    between atoms: _421  and  _423
REMARK  182  A    between atoms: _423  and  _424
REMARK  183  A    between atoms: _427  and  _429
REMARK  184  A    between atoms: _429  and  _430
REMARK  185  A    between atoms: _429  and  _432
REMARK  186  A    between atoms: _432  and  _433
REMARK  187  A    between atoms: _433  and  _434
REMARK  188  A    between atoms: _434  and  _435
REMARK  189  A    between atoms: _444  and  _446
REMARK  190  A    between atoms: _446  and  _447
REMARK  191  A    between atoms: _446  and  _449
REMARK  192  A    between atoms: _449  and  _450
REMARK  193  A    between atoms: _450  and  _451
REMARK  194  A    between atoms: _451  and  _452
REMARK  195  A    between atoms: _452  and  _453
REMARK  196  A    between atoms: _457  and  _459
REMARK  197  A    between atoms: _459  and  _460
REMARK  198  A    between atoms: _459  and  _462
REMARK  199  A    between atoms: _462  and  _463
REMARK  200  A    between atoms: _468  and  _469
REMARK  201  A    between atoms: _471  and  _473
REMARK  202  A    between atoms: _473  and  _474
REMARK  203  A    between atoms: _476  and  _478
REMARK  204  A    between atoms: _478  and  _479
REMARK  205  A    between atoms: _478  and  _481
REMARK  206  A    between atoms: _481  and  _482
REMARK  207  A    between atoms: _485  and  _487
REMARK  208  A    between atoms: _487  and  _488
REMARK  209  A    between atoms: _487  and  _490
REMARK  210  A    between atoms: _490  and  _491
REMARK  211  A    between atoms: _496  and  _497
REMARK  212  A    between atoms: _499  and  _501
REMARK  213  A    between atoms: _501  and  _502
REMARK  214  A    between atoms: _501  and  _504
REMARK  215  A    between atoms: _504  and  _505
REMARK                            x       y       z     vdW  Elec       q    Type
REMARK                         _______ _______ _______ _____ _____    ______ ____
ROOT
ATOM      1  O   HOH     1      -4.301  11.159  14.826  0.00  0.00    +0.000 OA
ENDROOT
TORSDOF 0
REMARK  Name = ../refined-set-2016/2vvv/2vvv_pocket.pdb
REMARK  215 active torsions:
REMARK  status: ('A' for Active; 'I' for Inactive)
REMARK    1  A    between atoms: _1  and  _5
REMARK    2  A    between atoms: _5  and  _6
REMARK    3  A    between atoms: _5  and  _8
REMARK    4  A    between atoms: _8  and  _9
REMARK    5  A    between atoms: _12  and  _14
REMARK    6  A    between atoms: _14  and  _15
REMARK    7  A    between atoms: _14  and  _17
REMARK    8  A    between atoms: _20  and  _22
REMARK    9  A    between atoms: _22  and  _23
REMARK   10  A    between atoms: _22  and  _25
REMARK   11  A    between atoms: _25  and  _26
REMARK   12  A    between atoms: _31  and  _33
REMARK   13  A    between atoms: _33  and  _34
REMARK   14  A    between atoms: _33  and  _36
REMARK   15  A    between atoms: _36  and  _37
REMARK   16  A    between atoms: _37  and  _38
REMARK   17  A    between atoms: _43  and  _45
REMARK   18  A    between atoms: _45  and  _46
REMARK   19  A    between atoms: _45  and  _48
REMARK   20  A    between atoms: _48  and  _49
REMARK   21  A    between atoms: _52  and  _54
REMARK   22  A    between atoms: _54  and  _55
REMARK   23  A    between atoms: _54  and  _57
REMARK   24  A    between atoms: _57  and  _58
REMARK   25  A    between atoms: _58  and  _59
REMARK   26  A    between atoms: _59  and  _60
REMARK   27  A    between atoms: _60  and  _61
REMARK   28  A    between atoms: _65  and  _67
REMARK   29  A    between atoms: _67  and  _68
REMARK   30  A    between atoms: _67  and  _70
REMARK   31  A    between atoms: _70  and  _71
REMARK   32  A    between atoms: _71  and  _72
REMARK   33  A    between atoms: _75  and  _77
REMARK   34  A    between atoms: _77  and  _78
REMARK   35  A    between atoms: _77  and  _80
REMARK   36  A    between atoms: _80  and  _81
REMARK   37  A    between atoms: _84  and  _86
REMARK   38  A    between atoms: _86  and  _87
REMARK   39  A    between atoms: _86  and  _89
REMARK   40  A    between atoms: _89  and  _90
REMARK   41  A    between atoms: _95  and  _96
REMARK   42  A    between atoms: _98  and  _100
REMARK   43  A    between atoms: _100  and  _101
REMARK   44  A    between atoms: _100  and  _103
REMARK   45  A    between atoms: _103  and  _104
REMARK   46  A    between atoms: _107  and  _109
REMARK   47  A    between atoms: _109  and  _110
REMARK   48  A    between atoms: _109  and  _112
REMARK   49  A    between atoms: _112  and  _113
REMARK   50  A    between atoms: _116  and  _118
REMARK   51  A    between atoms: _118  and  _119
REMARK   52  A    between atoms: _118  and  _121
REMARK   53  A    between atoms: _124  and  _126
REMARK   54  A    between atoms: _126  and  _127
REMARK   55  A    between atoms: _126  and  _129
REMARK   56  A    between atoms: _129  and  _130
REMARK   57  A    between atoms: _130  and  _131
REMARK   58  A    between atoms: _131  and  _132
REMARK   59  A    between atoms: _141  and  _143
REMARK   60  A    between atoms: _143  and  _144
REMARK   61  A    between atoms: _143  and  _146
REMARK   62  A    between atoms: _146  and  _147
REMARK   63  A    between atoms: _147  and  _148
REMARK   64  A    between atoms: _151  and  _153
REMARK   65  A    between atoms: _153  and  _154
REMARK   66  A    between atoms: _153  and  _156
REMARK   67  A    between atoms: _156  and  _157
REMARK   68  A    between atoms: _157  and  _158
REMARK   69  A    between atoms: _158  and  _159
REMARK   70  A    between atoms: _159  and  _160
REMARK   71  A    between atoms: _164  and  _166
REMARK   72  A    between atoms: _166  and  _167
REMARK   73  A    between atoms: _166  and  _169
REMARK   74  A    between atoms: _172  and  _174
REMARK   75  A    between atoms: _174  and  _175
REMARK   76  A    between atoms: _174  and  _177
REMARK   77  A    between atoms: _177  and  _178
REMARK   78  A    between atoms: _180  and  _182
REMARK   79  A    between atoms: _182  and  _183
REMARK   80  A    between atoms: _182  and  _185
REMARK   81  A    between atoms: _185  and  _186
REMARK   82  A    between atoms: _188  and  _190
REMARK   83  A    between atoms: _190  and  _191
REMARK   84  A    between atoms: _190  and  _193
REMARK   85  A    between atoms: _193  and  _194
REMARK   86  A    between atoms: _200  and  _202
REMARK   87  A    between atoms: _202  and  _203
REMARK   88  A    between atoms: _202  and  _205
REMARK   89  A    between atoms: _205  and  _206
REMARK   90  A    between atoms: _209  and  _211
REMARK   91  A    between atoms: _211  and  _212
REMARK   92  A    between atoms: _211  and  _214
REMARK   93  A    between atoms: _214  and  _215
REMARK   94  A    between atoms: _218  and  _220
REMARK   95  A    between atoms: _220  and  _221
REMARK   96  A    between atoms: _220  and  _223
REMARK   97  A    between atoms: _223  and  _224
REMARK   98  A    between atoms: _227  and  _229
REMARK   99  A    between atoms: _229  and  _230
REMARK  100  A    between atoms: _229  and  _232
REMARK  101  A    between atoms: _232  and  _233
REMARK  102  A    between atoms: _233  and  _234
REMARK  103  A    between atoms: _236  and  _238
REMARK  104  A    between atoms: _238  and  _239
REMARK  105  A    between atoms: _238  and  _241
REMARK  106  A    between atoms: _241  and  _242
REMARK  107  A    between atoms: _248  and  _250
REMARK  108  A    between atoms: _250  and  _251
REMARK  109  A    between atoms: _250  and  _253
REMARK  110  A    between atoms: _255  and  _257
REMARK  111  A    between atoms: _257  and  _258
REMARK  112  A    between atoms: _261  and  _263
REMARK  113  A    between atoms: _263  and  _264
REMARK  114  A    between atoms: _266  and  _268
REMARK  115  A    between atoms: _268  and  _269
REMARK  116  A    between atoms: _268  and  _271
REMARK  117  A    between atoms: _271  and  _272
REMARK  118  A    between atoms: _272  and  _273
REMARK  119  A    between atoms: _276  and  _278
REMARK  120  A    between atoms: _278  and  _279
REMARK  121  A    between atoms: _278  and  _281
REMARK  122  A    between atoms: _281  and  _282
REMARK  123  A    between atoms: _285  and  _287
REMARK  124  A    between atoms: _287  and  _288
REMARK  125  A    between atoms: _291  and  _293
REMARK  126  A    between atoms: _293  and  _294
REMARK  127  A    between atoms: _293  and  _296
REMARK  128  A    between atoms: _296  and  _297
REMARK  129  A    between atoms: _297  and  _420
REMARK  130  A    between atoms: _298  and  _300
REMARK  131  A    between atoms: _300  and  _301
REMARK  132  A    between atoms: _300  and  _303
REMARK  133  A    between atoms: _303  and  _304
REMARK  134  A    between atoms: _304  and  _305
REMARK  135  A    between atoms: _310  and  _312
REMARK  136  A    between atoms: _312  and  _313
REMARK  137  A    between atoms: _315  and  _317
REMARK  138  A    between atoms: _317  and  _318
REMARK  139  A    between atoms: _317  and  _320
REMARK  140  A    between atoms: _320  and  _321
REMARK  141  A    between atoms: _324  and  _326
REMARK  142  A    between atoms: _326  and  _327
REMARK  143  A    between atoms: _326  and  _329
REMARK  144  A    between atoms: _329  and  _330
REMARK  145  A    between atoms: _332  and  _334
REMARK  146  A    between atoms: _334  and  _335
REMARK  147  A    between atoms: _337  and  _339
REMARK  148  A    between atoms: _339  and  _340
REMARK  149  A    between atoms: _342  and  _344
REMARK  150  A    between atoms: _344  and  _345
REMARK  151  A    between atoms: _344  and  _347
REMARK  152  A    between atoms: _347  and  _348
REMARK  153  A    between atoms: _353  and  _355
REMARK  154  A    between atoms: _355  and  _356
REMARK  155  A    between atoms: _355  and  _358
REMARK  156  A    between atoms: _358  and  _359
REMARK  157  A    between atoms: _362  and  _364
REMARK  158  A    between atoms: _364  and  _365
REMARK  159  A    between atoms: _364  and  _367
REMARK  160  A    between atoms: _370  and  _372
REMARK  161  A    between atoms: _372  and  _373
REMARK  162  A    between atoms: _372  and  _375
REMARK  163  A    between atoms: _375  and  _376
REMARK  164  A    between atoms: _378  and  _380
REMARK  165  A    between atoms: _380  and  _381
REMARK  166  A    between atoms: _380  and  _383
REMARK  167  A    between atoms: _383  and  _384
REMARK  168  A    between atoms: _394  and  _396
REMARK  169  A    between atoms: _396  and  _397
REMARK  170  A    between atoms: _399  and  _401
REMARK  171  A    between atoms: _401  and  _402
REMARK  172  A    between atoms: _401  and  _404
REMARK  173  A    between atoms: _404  and  _405
REMARK  174  A    between atoms: _405  and  _406
REMARK  175  A    between atoms: _409  and  _411
REMARK  176  A    between atoms: _411  and  _412
REMARK  177  A    between atoms: _414  and  _416
REMARK  178  A    between atoms: _416  and  _417
REMARK  179  A    between atoms: _416  and  _419
REMARK  180  A    between atoms: _419  and  _420
REMARK  181  A    between atoms: _421  and  _423
REMARK  182  A    between atoms: _423  and  _424
REMARK  183  A    between atoms: _427  and  _429
REMARK  184  A    between atoms: _429  and  _430
REMARK  185  A    between atoms: _429  and  _432
REMARK  186  A    between atoms: _432  and  _433
REMARK  187  A    between atoms: _433  and  _434
REMARK  188  A    between atoms: _434  and  _435
REMARK  189  A    between atoms: _444  and  _446
REMARK  190  A    between atoms: _446  and  _447
REMARK  191  A    between atoms: _446  and  _449
REMARK  192  A    between atoms: _449  and  _450
REMARK  193  A    between atoms: _450  and  _451
REMARK  194  A    between atoms: _451  and  _452
REMARK  195  A    between atoms: _452  and  _453
REMARK  196  A    between atoms: _457  and  _459
REMARK  197  A    between atoms: _459  and  _460
REMARK  198  A    between atoms: _459  and  _462
REMARK  199  A    between atoms: _462  and  _463
REMARK  200  A    between atoms: _468  and  _469
REMARK  201  A    between atoms: _471  and  _473
REMARK  202  A    between atoms: _473  and  _474
REMARK  203  A    between atoms: _476  and  _478
REMARK  204  A    between atoms: _478  and  _479
REMARK  205  A    between atoms: _478  and  _481
REMARK  206  A    between atoms: _481  and  _482
REMARK  207  A    between atoms: _485  and  _487
REMARK  208  A    between atoms: _487  and  _488
REMARK  209  A    between atoms: _487  and  _490
REMARK  210  A    between atoms: _490  and  _491
REMARK  211  A    between atoms: _496  and  _497
REMARK  212  A    between atoms: _499  and  _501
REMARK  213  A    between atoms: _501  and  _502
REMARK  214  A    between atoms: _501  and  _504
REMARK  215  A    between atoms: _504  and  _505
REMARK                            x       y       z     vdW  Elec       q    Type
REMARK                         _______ _______ _______ _____ _____    ______ ____
ROOT
ATOM      1  O   HOH     1     -10.715   9.931  15.765  0.00  0.00    +0.000 OA
ENDROOT
TORSDOF 0
REMARK  Name = ../refined-set-2016/2vvv/2vvv_pocket.pdb
REMARK  215 active torsions:
REMARK  status: ('A' for Active; 'I' for Inactive)
REMARK    1  A    between atoms: _1  and  _5
REMARK    2  A    between atoms: _5  and  _6
REMARK    3  A    between atoms: _5  and  _8
REMARK    4  A    between atoms: _8  and  _9
REMARK    5  A    between atoms: _12  and  _14
REMARK    6  A    between atoms: _14  and  _15
REMARK    7  A    between atoms: _14  and  _17
REMARK    8  A    between atoms: _20  and  _22
REMARK    9  A    between atoms: _22  and  _23
REMARK   10  A    between atoms: _22  and  _25
REMARK   11  A    between atoms: _25  and  _26
REMARK   12  A    between atoms: _31  and  _33
REMARK   13  A    between atoms: _33  and  _34
REMARK   14  A    between atoms: _33  and  _36
REMARK   15  A    between atoms: _36  and  _37
REMARK   16  A    between atoms: _37  and  _38
REMARK   17  A    between atoms: _43  and  _45
REMARK   18  A    between atoms: _45  and  _46
REMARK   19  A    between atoms: _45  and  _48
REMARK   20  A    between atoms: _48  and  _49
REMARK   21  A    between atoms: _52  and  _54
REMARK   22  A    between atoms: _54  and  _55
REMARK   23  A    between atoms: _54  and  _57
REMARK   24  A    between atoms: _57  and  _58
REMARK   25  A    between atoms: _58  and  _59
REMARK   26  A    between atoms: _59  and  _60
REMARK   27  A    between atoms: _60  and  _61
REMARK   28  A    between atoms: _65  and  _67
REMARK   29  A    between atoms: _67  and  _68
REMARK   30  A    between atoms: _67  and  _70
REMARK   31  A    between atoms: _70  and  _71
REMARK   32  A    between atoms: _71  and  _72
REMARK   33  A    between atoms: _75  and  _77
REMARK   34  A    between atoms: _77  and  _78
REMARK   35  A    between atoms: _77  and  _80
REMARK   36  A    between atoms: _80  and  _81
REMARK   37  A    between atoms: _84  and  _86
REMARK   38  A    between atoms: _86  and  _87
REMARK   39  A    between atoms: _86  and  _89
REMARK   40  A    between atoms: _89  and  _90
REMARK   41  A    between atoms: _95  and  _96
REMARK   42  A    between atoms: _98  and  _100
REMARK   43  A    between atoms: _100  and  _101
REMARK   44  A    between atoms: _100  and  _103
REMARK   45  A    between atoms: _103  and  _104
REMARK   46  A    between atoms: _107  and  _109
REMARK   47  A    between atoms: _109  and  _110
REMARK   48  A    between atoms: _109  and  _112
REMARK   49  A    between atoms: _112  and  _113
REMARK   50  A    between atoms: _116  and  _118
REMARK   51  A    between atoms: _118  and  _119
REMARK   52  A    between atoms: _118  and  _121
REMARK   53  A    between atoms: _124  and  _126
REMARK   54  A    between atoms: _126  and  _127
REMARK   55  A    between atoms: _126  and  _129
REMARK   56  A    between atoms: _129  and  _130
REMARK   57  A    between atoms: _130  and  _131
REMARK   58  A    between atoms: _131  and  _132
REMARK   59  A    between atoms: _141  and  _143
REMARK   60  A    between atoms: _143  and  _144
REMARK   61  A    between atoms: _143  and  _146
REMARK   62  A    between atoms: _146  and  _147
REMARK   63  A    between atoms: _147  and  _148
REMARK   64  A    between atoms: _151  and  _153
REMARK   65  A    between atoms: _153  and  _154
REMARK   66  A    between atoms: _153  and  _156
REMARK   67  A    between atoms: _156  and  _157
REMARK   68  A    between atoms: _157  and  _158
REMARK   69  A    between atoms: _158  and  _159
REMARK   70  A    between atoms: _159  and  _160
REMARK   71  A    between atoms: _164  and  _166
REMARK   72  A    between atoms: _166  and  _167
REMARK   73  A    between atoms: _166  and  _169
REMARK   74  A    between atoms: _172  and  _174
REMARK   75  A    between atoms: _174  and  _175
REMARK   76  A    between atoms: _174  and  _177
REMARK   77  A    between atoms: _177  and  _178
REMARK   78  A    between atoms: _180  and  _182
REMARK   79  A    between atoms: _182  and  _183
REMARK   80  A    between atoms: _182  and  _185
REMARK   81  A    between atoms: _185  and  _186
REMARK   82  A    between atoms: _188  and  _190
REMARK   83  A    between atoms: _190  and  _191
REMARK   84  A    between atoms: _190  and  _193
REMARK   85  A    between atoms: _193  and  _194
REMARK   86  A    between atoms: _200  and  _202
REMARK   87  A    between atoms: _202  and  _203
REMARK   88  A    between atoms: _202  and  _205
REMARK   89  A    between atoms: _205  and  _206
REMARK   90  A    between atoms: _209  and  _211
REMARK   91  A    between atoms: _211  and  _212
REMARK   92  A    between atoms: _211  and  _214
REMARK   93  A    between atoms: _214  and  _215
REMARK   94  A    between atoms: _218  and  _220
REMARK   95  A    between atoms: _220  and  _221
REMARK   96  A    between atoms: _220  and  _223
REMARK   97  A    between atoms: _223  and  _224
REMARK   98  A    between atoms: _227  and  _229
REMARK   99  A    between atoms: _229  and  _230
REMARK  100  A    between atoms: _229  and  _232
REMARK  101  A    between atoms: _232  and  _233
REMARK  102  A    between atoms: _233  and  _234
REMARK  103  A    between atoms: _236  and  _238
REMARK  104  A    between atoms: _238  and  _239
REMARK  105  A    between atoms: _238  and  _241
REMARK  106  A    between atoms: _241  and  _242
REMARK  107  A    between atoms: _248  and  _250
REMARK  108  A    between atoms: _250  and  _251
REMARK  109  A    between atoms: _250  and  _253
REMARK  110  A    between atoms: _255  and  _257
REMARK  111  A    between atoms: _257  and  _258
REMARK  112  A    between atoms: _261  and  _263
REMARK  113  A    between atoms: _263  and  _264
REMARK  114  A    between atoms: _266  and  _268
REMARK  115  A    between atoms: _268  and  _269
REMARK  116  A    between atoms: _268  and  _271
REMARK  117  A    between atoms: _271  and  _272
REMARK  118  A    between atoms: _272  and  _273
REMARK  119  A    between atoms: _276  and  _278
REMARK  120  A    between atoms: _278  and  _279
REMARK  121  A    between atoms: _278  and  _281
REMARK  122  A    between atoms: _281  and  _282
REMARK  123  A    between atoms: _285  and  _287
REMARK  124  A    between atoms: _287  and  _288
REMARK  125  A    between atoms: _291  and  _293
REMARK  126  A    between atoms: _293  and  _294
REMARK  127  A    between atoms: _293  and  _296
REMARK  128  A    between atoms: _296  and  _297
REMARK  129  A    between atoms: _297  and  _420
REMARK  130  A    between atoms: _298  and  _300
REMARK  131  A    between atoms: _300  and  _301
REMARK  132  A    between atoms: _300  and  _303
REMARK  133  A    between atoms: _303  and  _304
REMARK  134  A    between atoms: _304  and  _305
REMARK  135  A    between atoms: _310  and  _312
REMARK  136  A    between atoms: _312  and  _313
REMARK  137  A    between atoms: _315  and  _317
REMARK  138  A    between atoms: _317  and  _318
REMARK  139  A    between atoms: _317  and  _320
REMARK  140  A    between atoms: _320  and  _321
REMARK  141  A    between atoms: _324  and  _326
REMARK  142  A    between atoms: _326  and  _327
REMARK  143  A    between atoms: _326  and  _329
REMARK  144  A    between atoms: _329  and  _330
REMARK  145  A    between atoms: _332  and  _334
REMARK  146  A    between atoms: _334  and  _335
REMARK  147  A    between atoms: _337  and  _339
REMARK  148  A    between atoms: _339  and  _340
REMARK  149  A    between atoms: _342  and  _344
REMARK  150  A    between atoms: _344  and  _345
REMARK  151  A    between atoms: _344  and  _347
REMARK  152  A    between atoms: _347  and  _348
REMARK  153  A    between atoms: _353  and  _355
REMARK  154  A    between atoms: _355  and  _356
REMARK  155  A    between atoms: _355  and  _358
REMARK  156  A    between atoms: _358  and  _359
REMARK  157  A    between atoms: _362  and  _364
REMARK  158  A    between atoms: _364  and  _365
REMARK  159  A    between atoms: _364  and  _367
REMARK  160  A    between atoms: _370  and  _372
REMARK  161  A    between atoms: _372  and  _373
REMARK  162  A    between atoms: _372  and  _375
REMARK  163  A    between atoms: _375  and  _376
REMARK  164  A    between atoms: _378  and  _380
REMARK  165  A    between atoms: _380  and  _381
REMARK  166  A    between atoms: _380  and  _383
REMARK  167  A    between atoms: _383  and  _384
REMARK  168  A    between atoms: _394  and  _396
REMARK  169  A    between atoms: _396  and  _397
REMARK  170  A    between atoms: _399  and  _401
REMARK  171  A    between atoms: _401  and  _402
REMARK  172  A    between atoms: _401  and  _404
REMARK  173  A    between atoms: _404  and  _405
REMARK  174  A    between atoms: _405  and  _406
REMARK  175  A    between atoms: _409  and  _411
REMARK  176  A    between atoms: _411  and  _412
REMARK  177  A    between atoms: _414  and  _416
REMARK  178  A    between atoms: _416  and  _417
REMARK  179  A    between atoms: _416  and  _419
REMARK  180  A    between atoms: _419  and  _420
REMARK  181  A    between atoms: _421  and  _423
REMARK  182  A    between atoms: _423  and  _424
REMARK  183  A    between atoms: _427  and  _429
REMARK  184  A    between atoms: _429  and  _430
REMARK  185  A    between atoms: _429  and  _432
REMARK  186  A    between atoms: _432  and  _433
REMARK  187  A    between atoms: _433  and  _434
REMARK  188  A    between atoms: _434  and  _435
REMARK  189  A    between atoms: _444  and  _446
REMARK  190  A    between atoms: _446  and  _447
REMARK  191  A    between atoms: _446  and  _449
REMARK  192  A    between atoms: _449  and  _450
REMARK  193  A    between atoms: _450  and  _451
REMARK  194  A    between atoms: _451  and  _452
REMARK  195  A    between atoms: _452  and  _453
REMARK  196  A    between atoms: _457  and  _459
REMARK  197  A    between atoms: _459  and  _460
REMARK  198  A    between atoms: _459  and  _462
REMARK  199  A    between atoms: _462  and  _463
REMARK  200  A    between atoms: _468  and  _469
REMARK  201  A    between atoms: _471  and  _473
REMARK  202  A    between atoms: _473  and  _474
REMARK  203  A    between atoms: _476  and  _478
REMARK  204  A    between atoms: _478  and  _479
REMARK  205  A    between atoms: _478  and  _481
REMARK  206  A    between atoms: _481  and  _482
REMARK  207  A    between atoms: _485  and  _487
REMARK  208  A    between atoms: _487  and  _488
REMARK  209  A    between atoms: _487  and  _490
REMARK  210  A    between atoms: _490  and  _491
REMARK  211  A    between atoms: _496  and  _497
REMARK  212  A    between atoms: _499  and  _501
REMARK  213  A    between atoms: _501  and  _502
REMARK  214  A    between atoms: _501  and  _504
REMARK  215  A    between atoms: _504  and  _505
REMARK                            x       y       z     vdW  Elec       q    Type
REMARK                         _______ _______ _______ _____ _____    ______ ____
ROOT
ATOM      1  O   HOH     1      -9.447  11.122  19.642  0.00  0.00    +0.000 OA
ENDROOT
TORSDOF 0
REMARK  Name = ../refined-set-2016/2vvv/2vvv_pocket.pdb
REMARK  215 active torsions:
REMARK  status: ('A' for Active; 'I' for Inactive)
REMARK    1  A    between atoms: _1  and  _5
REMARK    2  A    between atoms: _5  and  _6
REMARK    3  A    between atoms: _5  and  _8
REMARK    4  A    between atoms: _8  and  _9
REMARK    5  A    between atoms: _12  and  _14
REMARK    6  A    between atoms: _14  and  _15
REMARK    7  A    between atoms: _14  and  _17
REMARK    8  A    between atoms: _20  and  _22
REMARK    9  A    between atoms: _22  and  _23
REMARK   10  A    between atoms: _22  and  _25
REMARK   11  A    between atoms: _25  and  _26
REMARK   12  A    between atoms: _31  and  _33
REMARK   13  A    between atoms: _33  and  _34
REMARK   14  A    between atoms: _33  and  _36
REMARK   15  A    between atoms: _36  and  _37
REMARK   16  A    between atoms: _37  and  _38
REMARK   17  A    between atoms: _43  and  _45
REMARK   18  A    between atoms: _45  and  _46
REMARK   19  A    between atoms: _45  and  _48
REMARK   20  A    between atoms: _48  and  _49
REMARK   21  A    between atoms: _52  and  _54
REMARK   22  A    between atoms: _54  and  _55
REMARK   23  A    between atoms: _54  and  _57
REMARK   24  A    between atoms: _57  and  _58
REMARK   25  A    between atoms: _58  and  _59
REMARK   26  A    between atoms: _59  and  _60
REMARK   27  A    between atoms: _60  and  _61
REMARK   28  A    between atoms: _65  and  _67
REMARK   29  A    between atoms: _67  and  _68
REMARK   30  A    between atoms: _67  and  _70
REMARK   31  A    between atoms: _70  and  _71
REMARK   32  A    between atoms: _71  and  _72
REMARK   33  A    between atoms: _75  and  _77
REMARK   34  A    between atoms: _77  and  _78
REMARK   35  A    between atoms: _77  and  _80
REMARK   36  A    between atoms: _80  and  _81
REMARK   37  A    between atoms: _84  and  _86
REMARK   38  A    between atoms: _86  and  _87
REMARK   39  A    between atoms: _86  and  _89
REMARK   40  A    between atoms: _89  and  _90
REMARK   41  A    between atoms: _95  and  _96
REMARK   42  A    between atoms: _98  and  _100
REMARK   43  A    between atoms: _100  and  _101
REMARK   44  A    between atoms: _100  and  _103
REMARK   45  A    between atoms: _103  and  _104
REMARK   46  A    between atoms: _107  and  _109
REMARK   47  A    between atoms: _109  and  _110
REMARK   48  A    between atoms: _109  and  _112
REMARK   49  A    between atoms: _112  and  _113
REMARK   50  A    between atoms: _116  and  _118
REMARK   51  A    between atoms: _118  and  _119
REMARK   52  A    between atoms: _118  and  _121
REMARK   53  A    between atoms: _124  and  _126
REMARK   54  A    between atoms: _126  and  _127
REMARK   55  A    between atoms: _126  and  _129
REMARK   56  A    between atoms: _129  and  _130
REMARK   57  A    between atoms: _130  and  _131
REMARK   58  A    between atoms: _131  and  _132
REMARK   59  A    between atoms: _141  and  _143
REMARK   60  A    between atoms: _143  and  _144
REMARK   61  A    between atoms: _143  and  _146
REMARK   62  A    between atoms: _146  and  _147
REMARK   63  A    between atoms: _147  and  _148
REMARK   64  A    between atoms: _151  and  _153
REMARK   65  A    between atoms: _153  and  _154
REMARK   66  A    between atoms: _153  and  _156
REMARK   67  A    between atoms: _156  and  _157
REMARK   68  A    between atoms: _157  and  _158
REMARK   69  A    between atoms: _158  and  _159
REMARK   70  A    between atoms: _159  and  _160
REMARK   71  A    between atoms: _164  and  _166
REMARK   72  A    between atoms: _166  and  _167
REMARK   73  A    between atoms: _166  and  _169
REMARK   74  A    between atoms: _172  and  _174
REMARK   75  A    between atoms: _174  and  _175
REMARK   76  A    between atoms: _174  and  _177
REMARK   77  A    between atoms: _177  and  _178
REMARK   78  A    between atoms: _180  and  _182
REMARK   79  A    between atoms: _182  and  _183
REMARK   80  A    between atoms: _182  and  _185
REMARK   81  A    between atoms: _185  and  _186
REMARK   82  A    between atoms: _188  and  _190
REMARK   83  A    between atoms: _190  and  _191
REMARK   84  A    between atoms: _190  and  _193
REMARK   85  A    between atoms: _193  and  _194
REMARK   86  A    between atoms: _200  and  _202
REMARK   87  A    between atoms: _202  and  _203
REMARK   88  A    between atoms: _202  and  _205
REMARK   89  A    between atoms: _205  and  _206
REMARK   90  A    between atoms: _209  and  _211
REMARK   91  A    between atoms: _211  and  _212
REMARK   92  A    between atoms: _211  and  _214
REMARK   93  A    between atoms: _214  and  _215
REMARK   94  A    between atoms: _218  and  _220
REMARK   95  A    between atoms: _220  and  _221
REMARK   96  A    between atoms: _220  and  _223
REMARK   97  A    between atoms: _223  and  _224
REMARK   98  A    between atoms: _227  and  _229
REMARK   99  A    between atoms: _229  and  _230
REMARK  100  A    between atoms: _229  and  _232
REMARK  101  A    between atoms: _232  and  _233
REMARK  102  A    between atoms: _233  and  _234
REMARK  103  A    between atoms: _236  and  _238
REMARK  104  A    between atoms: _238  and  _239
REMARK  105  A    between atoms: _238  and  _241
REMARK  106  A    between atoms: _241  and  _242
REMARK  107  A    between atoms: _248  and  _250
REMARK  108  A    between atoms: _250  and  _251
REMARK  109  A    between atoms: _250  and  _253
REMARK  110  A    between atoms: _255  and  _257
REMARK  111  A    between atoms: _257  and  _258
REMARK  112  A    between atoms: _261  and  _263
REMARK  113  A    between atoms: _263  and  _264
REMARK  114  A    between atoms: _266  and  _268
REMARK  115  A    between atoms: _268  and  _269
REMARK  116  A    between atoms: _268  and  _271
REMARK  117  A    between atoms: _271  and  _272
REMARK  118  A    between atoms: _272  and  _273
REMARK  119  A    between atoms: _276  and  _278
REMARK  120  A    between atoms: _278  and  _279
REMARK  121  A    between atoms: _278  and  _281
REMARK  122  A    between atoms: _281  and  _282
REMARK  123  A    between atoms: _285  and  _287
REMARK  124  A    between atoms: _287  and  _288
REMARK  125  A    between atoms: _291  and  _293
REMARK  126  A    between atoms: _293  and  _294
REMARK  127  A    between atoms: _293  and  _296
REMARK  128  A    between atoms: _296  and  _297
REMARK  129  A    between atoms: _297  and  _420
REMARK  130  A    between atoms: _298  and  _300
REMARK  131  A    between atoms: _300  and  _301
REMARK  132  A    between atoms: _300  and  _303
REMARK  133  A    between atoms: _303  and  _304
REMARK  134  A    between atoms: _304  and  _305
REMARK  135  A    between atoms: _310  and  _312
REMARK  136  A    between atoms: _312  and  _313
REMARK  137  A    between atoms: _315  and  _317
REMARK  138  A    between atoms: _317  and  _318
REMARK  139  A    between atoms: _317  and  _320
REMARK  140  A    between atoms: _320  and  _321
REMARK  141  A    between atoms: _324  and  _326
REMARK  142  A    between atoms: _326  and  _327
REMARK  143  A    between atoms: _326  and  _329
REMARK  144  A    between atoms: _329  and  _330
REMARK  145  A    between atoms: _332  and  _334
REMARK  146  A    between atoms: _334  and  _335
REMARK  147  A    between atoms: _337  and  _339
REMARK  148  A    between atoms: _339  and  _340
REMARK  149  A    between atoms: _342  and  _344
REMARK  150  A    between atoms: _344  and  _345
REMARK  151  A    between atoms: _344  and  _347
REMARK  152  A    between atoms: _347  and  _348
REMARK  153  A    between atoms: _353  and  _355
REMARK  154  A    between atoms: _355  and  _356
REMARK  155  A    between atoms: _355  and  _358
REMARK  156  A    between atoms: _358  and  _359
REMARK  157  A    between atoms: _362  and  _364
REMARK  158  A    between atoms: _364  and  _365
REMARK  159  A    between atoms: _364  and  _367
REMARK  160  A    between atoms: _370  and  _372
REMARK  161  A    between atoms: _372  and  _373
REMARK  162  A    between atoms: _372  and  _375
REMARK  163  A    between atoms: _375  and  _376
REMARK  164  A    between atoms: _378  and  _380
REMARK  165  A    between atoms: _380  and  _381
REMARK  166  A    between atoms: _380  and  _383
REMARK  167  A    between atoms: _383  and  _384
REMARK  168  A    between atoms: _394  and  _396
REMARK  169  A    between atoms: _396  and  _397
REMARK  170  A    between atoms: _399  and  _401
REMARK  171  A    between atoms: _401  and  _402
REMARK  172  A    between atoms: _401  and  _404
REMARK  173  A    between atoms: _404  and  _405
REMARK  174  A    between atoms: _405  and  _406
REMARK  175  A    between atoms: _409  and  _411
REMARK  176  A    between atoms: _411  and  _412
REMARK  177  A    between atoms: _414  and  _416
REMARK  178  A    between atoms: _416  and  _417
REMARK  179  A    between atoms: _416  and  _419
REMARK  180  A    between atoms: _419  and  _420
REMARK  181  A    between atoms: _421  and  _423
REMARK  182  A    between atoms: _423  and  _424
REMARK  183  A    between atoms: _427  and  _429
REMARK  184  A    between atoms: _429  and  _430
REMARK  185  A    between atoms: _429  and  _432
REMARK  186  A    between atoms: _432  and  _433
REMARK  187  A    between atoms: _433  and  _434
REMARK  188  A    between atoms: _434  and  _435
REMARK  189  A    between atoms: _444  and  _446
REMARK  190  A    between atoms: _446  and  _447
REMARK  191  A    between atoms: _446  and  _449
REMARK  192  A    between atoms: _449  and  _450
REMARK  193  A    between atoms: _450  and  _451
REMARK  194  A    between atoms: _451  and  _452
REMARK  195  A    between atoms: _452  and  _453
REMARK  196  A    between atoms: _457  and  _459
REMARK  197  A    between atoms: _459  and  _460
REMARK  198  A    between atoms: _459  and  _462
REMARK  199  A    between atoms: _462  and  _463
REMARK  200  A    between atoms: _468  and  _469
REMARK  201  A    between atoms: _471  and  _473
REMARK  202  A    between atoms: _473  and  _474
REMARK  203  A    between atoms: _476  and  _478
REMARK  204  A    between atoms: _478  and  _479
REMARK  205  A    between atoms: _478  and  _481
REMARK  206  A    between atoms: _481  and  _482
REMARK  207  A    between atoms: _485  and  _487
REMARK  208  A    between atoms: _487  and  _488
REMARK  209  A    between atoms: _487  and  _490
REMARK  210  A    between atoms: _490  and  _491
REMARK  211  A    between atoms: _496  and  _497
REMARK  212  A    between atoms: _499  and  _501
REMARK  213  A    between atoms: _501  and  _502
REMARK  214  A    between atoms: _501  and  _504
REMARK  215  A    between atoms: _504  and  _505
REMARK                            x       y       z     vdW  Elec       q    Type
REMARK                         _______ _______ _______ _____ _____    ______ ____
ROOT
ATOM      1  O   HOH     1     -10.147  12.654  14.739  0.00  0.00    +0.000 OA
ENDROOT
TORSDOF 0
REMARK  Name = ../refined-set-2016/2vvv/2vvv_pocket.pdb
REMARK  215 active torsions:
REMARK  status: ('A' for Active; 'I' for Inactive)
REMARK    1  A    between atoms: _1  and  _5
REMARK    2  A    between atoms: _5  and  _6
REMARK    3  A    between atoms: _5  and  _8
REMARK    4  A    between atoms: _8  and  _9
REMARK    5  A    between atoms: _12  and  _14
REMARK    6  A    between atoms: _14  and  _15
REMARK    7  A    between atoms: _14  and  _17
REMARK    8  A    between atoms: _20  and  _22
REMARK    9  A    between atoms: _22  and  _23
REMARK   10  A    between atoms: _22  and  _25
REMARK   11  A    between atoms: _25  and  _26
REMARK   12  A    between atoms: _31  and  _33
REMARK   13  A    between atoms: _33  and  _34
REMARK   14  A    between atoms: _33  and  _36
REMARK   15  A    between atoms: _36  and  _37
REMARK   16  A    between atoms: _37  and  _38
REMARK   17  A    between atoms: _43  and  _45
REMARK   18  A    between atoms: _45  and  _46
REMARK   19  A    between atoms: _45  and  _48
REMARK   20  A    between atoms: _48  and  _49
REMARK   21  A    between atoms: _52  and  _54
REMARK   22  A    between atoms: _54  and  _55
REMARK   23  A    between atoms: _54  and  _57
REMARK   24  A    between atoms: _57  and  _58
REMARK   25  A    between atoms: _58  and  _59
REMARK   26  A    between atoms: _59  and  _60
REMARK   27  A    between atoms: _60  and  _61
REMARK   28  A    between atoms: _65  and  _67
REMARK   29  A    between atoms: _67  and  _68
REMARK   30  A    between atoms: _67  and  _70
REMARK   31  A    between atoms: _70  and  _71
REMARK   32  A    between atoms: _71  and  _72
REMARK   33  A    between atoms: _75  and  _77
REMARK   34  A    between atoms: _77  and  _78
REMARK   35  A    between atoms: _77  and  _80
REMARK   36  A    between atoms: _80  and  _81
REMARK   37  A    between atoms: _84  and  _86
REMARK   38  A    between atoms: _86  and  _87
REMARK   39  A    between atoms: _86  and  _89
REMARK   40  A    between atoms: _89  and  _90
REMARK   41  A    between atoms: _95  and  _96
REMARK   42  A    between atoms: _98  and  _100
REMARK   43  A    between atoms: _100  and  _101
REMARK   44  A    between atoms: _100  and  _103
REMARK   45  A    between atoms: _103  and  _104
REMARK   46  A    between atoms: _107  and  _109
REMARK   47  A    between atoms: _109  and  _110
REMARK   48  A    between atoms: _109  and  _112
REMARK   49  A    between atoms: _112  and  _113
REMARK   50  A    between atoms: _116  and  _118
REMARK   51  A    between atoms: _118  and  _119
REMARK   52  A    between atoms: _118  and  _121
REMARK   53  A    between atoms: _124  and  _126
REMARK   54  A    between atoms: _126  and  _127
REMARK   55  A    between atoms: _126  and  _129
REMARK   56  A    between atoms: _129  and  _130
REMARK   57  A    between atoms: _130  and  _131
REMARK   58  A    between atoms: _131  and  _132
REMARK   59  A    between atoms: _141  and  _143
REMARK   60  A    between atoms: _143  and  _144
REMARK   61  A    between atoms: _143  and  _146
REMARK   62  A    between atoms: _146  and  _147
REMARK   63  A    between atoms: _147  and  _148
REMARK   64  A    between atoms: _151  and  _153
REMARK   65  A    between atoms: _153  and  _154
REMARK   66  A    between atoms: _153  and  _156
REMARK   67  A    between atoms: _156  and  _157
REMARK   68  A    between atoms: _157  and  _158
REMARK   69  A    between atoms: _158  and  _159
REMARK   70  A    between atoms: _159  and  _160
REMARK   71  A    between atoms: _164  and  _166
REMARK   72  A    between atoms: _166  and  _167
REMARK   73  A    between atoms: _166  and  _169
REMARK   74  A    between atoms: _172  and  _174
REMARK   75  A    between atoms: _174  and  _175
REMARK   76  A    between atoms: _174  and  _177
REMARK   77  A    between atoms: _177  and  _178
REMARK   78  A    between atoms: _180  and  _182
REMARK   79  A    between atoms: _182  and  _183
REMARK   80  A    between atoms: _182  and  _185
REMARK   81  A    between atoms: _185  and  _186
REMARK   82  A    between atoms: _188  and  _190
REMARK   83  A    between atoms: _190  and  _191
REMARK   84  A    between atoms: _190  and  _193
REMARK   85  A    between atoms: _193  and  _194
REMARK   86  A    between atoms: _200  and  _202
REMARK   87  A    between atoms: _202  and  _203
REMARK   88  A    between atoms: _202  and  _205
REMARK   89  A    between atoms: _205  and  _206
REMARK   90  A    between atoms: _209  and  _211
REMARK   91  A    between atoms: _211  and  _212
REMARK   92  A    between atoms: _211  and  _214
REMARK   93  A    between atoms: _214  and  _215
REMARK   94  A    between atoms: _218  and  _220
REMARK   95  A    between atoms: _220  and  _221
REMARK   96  A    between atoms: _220  and  _223
REMARK   97  A    between atoms: _223  and  _224
REMARK   98  A    between atoms: _227  and  _229
REMARK   99  A    between atoms: _229  and  _230
REMARK  100  A    between atoms: _229  and  _232
REMARK  101  A    between atoms: _232  and  _233
REMARK  102  A    between atoms: _233  and  _234
REMARK  103  A    between atoms: _236  and  _238
REMARK  104  A    between atoms: _238  and  _239
REMARK  105  A    between atoms: _238  and  _241
REMARK  106  A    between atoms: _241  and  _242
REMARK  107  A    between atoms: _248  and  _250
REMARK  108  A    between atoms: _250  and  _251
REMARK  109  A    between atoms: _250  and  _253
REMARK  110  A    between atoms: _255  and  _257
REMARK  111  A    between atoms: _257  and  _258
REMARK  112  A    between atoms: _261  and  _263
REMARK  113  A    between atoms: _263  and  _264
REMARK  114  A    between atoms: _266  and  _268
REMARK  115  A    between atoms: _268  and  _269
REMARK  116  A    between atoms: _268  and  _271
REMARK  117  A    between atoms: _271  and  _272
REMARK  118  A    between atoms: _272  and  _273
REMARK  119  A    between atoms: _276  and  _278
REMARK  120  A    between atoms: _278  and  _279
REMARK  121  A    between atoms: _278  and  _281
REMARK  122  A    between atoms: _281  and  _282
REMARK  123  A    between atoms: _285  and  _287
REMARK  124  A    between atoms: _287  and  _288
REMARK  125  A    between atoms: _291  and  _293
REMARK  126  A    between atoms: _293  and  _294
REMARK  127  A    between atoms: _293  and  _296
REMARK  128  A    between atoms: _296  and  _297
REMARK  129  A    between atoms: _297  and  _420
REMARK  130  A    between atoms: _298  and  _300
REMARK  131  A    between atoms: _300  and  _301
REMARK  132  A    between atoms: _300  and  _303
REMARK  133  A    between atoms: _303  and  _304
REMARK  134  A    between atoms: _304  and  _305
REMARK  135  A    between atoms: _310  and  _312
REMARK  136  A    between atoms: _312  and  _313
REMARK  137  A    between atoms: _315  and  _317
REMARK  138  A    between atoms: _317  and  _318
REMARK  139  A    between atoms: _317  and  _320
REMARK  140  A    between atoms: _320  and  _321
REMARK  141  A    between atoms: _324  and  _326
REMARK  142  A    between atoms: _326  and  _327
REMARK  143  A    between atoms: _326  and  _329
REMARK  144  A    between atoms: _329  and  _330
REMARK  145  A    between atoms: _332  and  _334
REMARK  146  A    between atoms: _334  and  _335
REMARK  147  A    between atoms: _337  and  _339
REMARK  148  A    between atoms: _339  and  _340
REMARK  149  A    between atoms: _342  and  _344
REMARK  150  A    between atoms: _344  and  _345
REMARK  151  A    between atoms: _344  and  _347
REMARK  152  A    between atoms: _347  and  _348
REMARK  153  A    between atoms: _353  and  _355
REMARK  154  A    between atoms: _355  and  _356
REMARK  155  A    between atoms: _355  and  _358
REMARK  156  A    between atoms: _358  and  _359
REMARK  157  A    between atoms: _362  and  _364
REMARK  158  A    between atoms: _364  and  _365
REMARK  159  A    between atoms: _364  and  _367
REMARK  160  A    between atoms: _370  and  _372
REMARK  161  A    between atoms: _372  and  _373
REMARK  162  A    between atoms: _372  and  _375
REMARK  163  A    between atoms: _375  and  _376
REMARK  164  A    between atoms: _378  and  _380
REMARK  165  A    between atoms: _380  and  _381
REMARK  166  A    between atoms: _380  and  _383
REMARK  167  A    between atoms: _383  and  _384
REMARK  168  A    between atoms: _394  and  _396
REMARK  169  A    between atoms: _396  and  _397
REMARK  170  A    between atoms: _399  and  _401
REMARK  171  A    between atoms: _401  and  _402
REMARK  172  A    between atoms: _401  and  _404
REMARK  173  A    between atoms: _404  and  _405
REMARK  174  A    between atoms: _405  and  _406
REMARK  175  A    between atoms: _409  and  _411
REMARK  176  A    between atoms: _411  and  _412
REMARK  177  A    between atoms: _414  and  _416
REMARK  178  A    between atoms: _416  and  _417
REMARK  179  A    between atoms: _416  and  _419
REMARK  180  A    between atoms: _419  and  _420
REMARK  181  A    between atoms: _421  and  _423
REMARK  182  A    between atoms: _423  and  _424
REMARK  183  A    between atoms: _427  and  _429
REMARK  184  A    between atoms: _429  and  _430
REMARK  185  A    between atoms: _429  and  _432
REMARK  186  A    between atoms: _432  and  _433
REMARK  187  A    between atoms: _433  and  _434
REMARK  188  A    between atoms: _434  and  _435
REMARK  189  A    between atoms: _444  and  _446
REMARK  190  A    between atoms: _446  and  _447
REMARK  191  A    between atoms: _446  and  _449
REMARK  192  A    between atoms: _449  and  _450
REMARK  193  A    between atoms: _450  and  _451
REMARK  194  A    between atoms: _451  and  _452
REMARK  195  A    between atoms: _452  and  _453
REMARK  196  A    between atoms: _457  and  _459
REMARK  197  A    between atoms: _459  and  _460
REMARK  198  A    between atoms: _459  and  _462
REMARK  199  A    between atoms: _462  and  _463
REMARK  200  A    between atoms: _468  and  _469
REMARK  201  A    between atoms: _471  and  _473
REMARK  202  A    between atoms: _473  and  _474
REMARK  203  A    between atoms: _476  and  _478
REMARK  204  A    between atoms: _478  and  _479
REMARK  205  A    between atoms: _478  and  _481
REMARK  206  A    between atoms: _481  and  _482
REMARK  207  A    between atoms: _485  and  _487
REMARK  208  A    between atoms: _487  and  _488
REMARK  209  A    between atoms: _487  and  _490
REMARK  210  A    between atoms: _490  and  _491
REMARK  211  A    between atoms: _496  and  _497
REMARK  212  A    between atoms: _499  and  _501
REMARK  213  A    between atoms: _501  and  _502
REMARK  214  A    between atoms: _501  and  _504
REMARK  215  A    between atoms: _504  and  _505
REMARK                            x       y       z     vdW  Elec       q    Type
REMARK                         _______ _______ _______ _____ _____    ______ ____
ROOT
ATOM      1  O   HOH     1       2.513  16.622  23.225  0.00  0.00    +0.000 OA
ENDROOT
TORSDOF 0
REMARK  Name = ../refined-set-2016/2vvv/2vvv_pocket.pdb
REMARK  215 active torsions:
REMARK  status: ('A' for Active; 'I' for Inactive)
REMARK    1  A    between atoms: _1  and  _5
REMARK    2  A    between atoms: _5  and  _6
REMARK    3  A    between atoms: _5  and  _8
REMARK    4  A    between atoms: _8  and  _9
REMARK    5  A    between atoms: _12  and  _14
REMARK    6  A    between atoms: _14  and  _15
REMARK    7  A    between atoms: _14  and  _17
REMARK    8  A    between atoms: _20  and  _22
REMARK    9  A    between atoms: _22  and  _23
REMARK   10  A    between atoms: _22  and  _25
REMARK   11  A    between atoms: _25  and  _26
REMARK   12  A    between atoms: _31  and  _33
REMARK   13  A    between atoms: _33  and  _34
REMARK   14  A    between atoms: _33  and  _36
REMARK   15  A    between atoms: _36  and  _37
REMARK   16  A    between atoms: _37  and  _38
REMARK   17  A    between atoms: _43  and  _45
REMARK   18  A    between atoms: _45  and  _46
REMARK   19  A    between atoms: _45  and  _48
REMARK   20  A    between atoms: _48  and  _49
REMARK   21  A    between atoms: _52  and  _54
REMARK   22  A    between atoms: _54  and  _55
REMARK   23  A    between atoms: _54  and  _57
REMARK   24  A    between atoms: _57  and  _58
REMARK   25  A    between atoms: _58  and  _59
REMARK   26  A    between atoms: _59  and  _60
REMARK   27  A    between atoms: _60  and  _61
REMARK   28  A    between atoms: _65  and  _67
REMARK   29  A    between atoms: _67  and  _68
REMARK   30  A    between atoms: _67  and  _70
REMARK   31  A    between atoms: _70  and  _71
REMARK   32  A    between atoms: _71  and  _72
REMARK   33  A    between atoms: _75  and  _77
REMARK   34  A    between atoms: _77  and  _78
REMARK   35  A    between atoms: _77  and  _80
REMARK   36  A    between atoms: _80  and  _81
REMARK   37  A    between atoms: _84  and  _86
REMARK   38  A    between atoms: _86  and  _87
REMARK   39  A    between atoms: _86  and  _89
REMARK   40  A    between atoms: _89  and  _90
REMARK   41  A    between atoms: _95  and  _96
REMARK   42  A    between atoms: _98  and  _100
REMARK   43  A    between atoms: _100  and  _101
REMARK   44  A    between atoms: _100  and  _103
REMARK   45  A    between atoms: _103  and  _104
REMARK   46  A    between atoms: _107  and  _109
REMARK   47  A    between atoms: _109  and  _110
REMARK   48  A    between atoms: _109  and  _112
REMARK   49  A    between atoms: _112  and  _113
REMARK   50  A    between atoms: _116  and  _118
REMARK   51  A    between atoms: _118  and  _119
REMARK   52  A    between atoms: _118  and  _121
REMARK   53  A    between atoms: _124  and  _126
REMARK   54  A    between atoms: _126  and  _127
REMARK   55  A    between atoms: _126  and  _129
REMARK   56  A    between atoms: _129  and  _130
REMARK   57  A    between atoms: _130  and  _131
REMARK   58  A    between atoms: _131  and  _132
REMARK   59  A    between atoms: _141  and  _143
REMARK   60  A    between atoms: _143  and  _144
REMARK   61  A    between atoms: _143  and  _146
REMARK   62  A    between atoms: _146  and  _147
REMARK   63  A    between atoms: _147  and  _148
REMARK   64  A    between atoms: _151  and  _153
REMARK   65  A    between atoms: _153  and  _154
REMARK   66  A    between atoms: _153  and  _156
REMARK   67  A    between atoms: _156  and  _157
REMARK   68  A    between atoms: _157  and  _158
REMARK   69  A    between atoms: _158  and  _159
REMARK   70  A    between atoms: _159  and  _160
REMARK   71  A    between atoms: _164  and  _166
REMARK   72  A    between atoms: _166  and  _167
REMARK   73  A    between atoms: _166  and  _169
REMARK   74  A    between atoms: _172  and  _174
REMARK   75  A    between atoms: _174  and  _175
REMARK   76  A    between atoms: _174  and  _177
REMARK   77  A    between atoms: _177  and  _178
REMARK   78  A    between atoms: _180  and  _182
REMARK   79  A    between atoms: _182  and  _183
REMARK   80  A    between atoms: _182  and  _185
REMARK   81  A    between atoms: _185  and  _186
REMARK   82  A    between atoms: _188  and  _190
REMARK   83  A    between atoms: _190  and  _191
REMARK   84  A    between atoms: _190  and  _193
REMARK   85  A    between atoms: _193  and  _194
REMARK   86  A    between atoms: _200  and  _202
REMARK   87  A    between atoms: _202  and  _203
REMARK   88  A    between atoms: _202  and  _205
REMARK   89  A    between atoms: _205  and  _206
REMARK   90  A    between atoms: _209  and  _211
REMARK   91  A    between atoms: _211  and  _212
REMARK   92  A    between atoms: _211  and  _214
REMARK   93  A    between atoms: _214  and  _215
REMARK   94  A    between atoms: _218  and  _220
REMARK   95  A    between atoms: _220  and  _221
REMARK   96  A    between atoms: _220  and  _223
REMARK   97  A    between atoms: _223  and  _224
REMARK   98  A    between atoms: _227  and  _229
REMARK   99  A    between atoms: _229  and  _230
REMARK  100  A    between atoms: _229  and  _232
REMARK  101  A    between atoms: _232  and  _233
REMARK  102  A    between atoms: _233  and  _234
REMARK  103  A    between atoms: _236  and  _238
REMARK  104  A    between atoms: _238  and  _239
REMARK  105  A    between atoms: _238  and  _241
REMARK  106  A    between atoms: _241  and  _242
REMARK  107  A    between atoms: _248  and  _250
REMARK  108  A    between atoms: _250  and  _251
REMARK  109  A    between atoms: _250  and  _253
REMARK  110  A    between atoms: _255  and  _257
REMARK  111  A    between atoms: _257  and  _258
REMARK  112  A    between atoms: _261  and  _263
REMARK  113  A    between atoms: _263  and  _264
REMARK  114  A    between atoms: _266  and  _268
REMARK  115  A    between atoms: _268  and  _269
REMARK  116  A    between atoms: _268  and  _271
REMARK  117  A    between atoms: _271  and  _272
REMARK  118  A    between atoms: _272  and  _273
REMARK  119  A    between atoms: _276  and  _278
REMARK  120  A    between atoms: _278  and  _279
REMARK  121  A    between atoms: _278  and  _281
REMARK  122  A    between atoms: _281  and  _282
REMARK  123  A    between atoms: _285  and  _287
REMARK  124  A    between atoms: _287  and  _288
REMARK  125  A    between atoms: _291  and  _293
REMARK  126  A    between atoms: _293  and  _294
REMARK  127  A    between atoms: _293  and  _296
REMARK  128  A    between atoms: _296  and  _297
REMARK  129  A    between atoms: _297  and  _420
REMARK  130  A    between atoms: _298  and  _300
REMARK  131  A    between atoms: _300  and  _301
REMARK  132  A    between atoms: _300  and  _303
REMARK  133  A    between atoms: _303  and  _304
REMARK  134  A    between atoms: _304  and  _305
REMARK  135  A    between atoms: _310  and  _312
REMARK  136  A    between atoms: _312  and  _313
REMARK  137  A    between atoms: _315  and  _317
REMARK  138  A    between atoms: _317  and  _318
REMARK  139  A    between atoms: _317  and  _320
REMARK  140  A    between atoms: _320  and  _321
REMARK  141  A    between atoms: _324  and  _326
REMARK  142  A    between atoms: _326  and  _327
REMARK  143  A    between atoms: _326  and  _329
REMARK  144  A    between atoms: _329  and  _330
REMARK  145  A    between atoms: _332  and  _334
REMARK  146  A    between atoms: _334  and  _335
REMARK  147  A    between atoms: _337  and  _339
REMARK  148  A    between atoms: _339  and  _340
REMARK  149  A    between atoms: _342  and  _344
REMARK  150  A    between atoms: _344  and  _345
REMARK  151  A    between atoms: _344  and  _347
REMARK  152  A    between atoms: _347  and  _348
REMARK  153  A    between atoms: _353  and  _355
REMARK  154  A    between atoms: _355  and  _356
REMARK  155  A    between atoms: _355  and  _358
REMARK  156  A    between atoms: _358  and  _359
REMARK  157  A    between atoms: _362  and  _364
REMARK  158  A    between atoms: _364  and  _365
REMARK  159  A    between atoms: _364  and  _367
REMARK  160  A    between atoms: _370  and  _372
REMARK  161  A    between atoms: _372  and  _373
REMARK  162  A    between atoms: _372  and  _375
REMARK  163  A    between atoms: _375  and  _376
REMARK  164  A    between atoms: _378  and  _380
REMARK  165  A    between atoms: _380  and  _381
REMARK  166  A    between atoms: _380  and  _383
REMARK  167  A    between atoms: _383  and  _384
REMARK  168  A    between atoms: _394  and  _396
REMARK  169  A    between atoms: _396  and  _397
REMARK  170  A    between atoms: _399  and  _401
REMARK  171  A    between atoms: _401  and  _402
REMARK  172  A    between atoms: _401  and  _404
REMARK  173  A    between atoms: _404  and  _405
REMARK  174  A    between atoms: _405  and  _406
REMARK  175  A    between atoms: _409  and  _411
REMARK  176  A    between atoms: _411  and  _412
REMARK  177  A    between atoms: _414  and  _416
REMARK  178  A    between atoms: _416  and  _417
REMARK  179  A    between atoms: _416  and  _419
REMARK  180  A    between atoms: _419  and  _420
REMARK  181  A    between atoms: _421  and  _423
REMARK  182  A    between atoms: _423  and  _424
REMARK  183  A    between atoms: _427  and  _429
REMARK  184  A    between atoms: _429  and  _430
REMARK  185  A    between atoms: _429  and  _432
REMARK  186  A    between atoms: _432  and  _433
REMARK  187  A    between atoms: _433  and  _434
REMARK  188  A    between atoms: _434  and  _435
REMARK  189  A    between atoms: _444  and  _446
REMARK  190  A    between atoms: _446  and  _447
REMARK  191  A    between atoms: _446  and  _449
REMARK  192  A    between atoms: _449  and  _450
REMARK  193  A    between atoms: _450  and  _451
REMARK  194  A    between atoms: _451  and  _452
REMARK  195  A    between atoms: _452  and  _453
REMARK  196  A    between atoms: _457  and  _459
REMARK  197  A    between atoms: _459  and  _460
REMARK  198  A    between atoms: _459  and  _462
REMARK  199  A    between atoms: _462  and  _463
REMARK  200  A    between atoms: _468  and  _469
REMARK  201  A    between atoms: _471  and  _473
REMARK  202  A    between atoms: _473  and  _474
REMARK  203  A    between atoms: _476  and  _478
REMARK  204  A    between atoms: _478  and  _479
REMARK  205  A    between atoms: _478  and  _481
REMARK  206  A    between atoms: _481  and  _482
REMARK  207  A    between atoms: _485  and  _487
REMARK  208  A    between atoms: _487  and  _488
REMARK  209  A    between atoms: _487  and  _490
REMARK  210  A    between atoms: _490  and  _491
REMARK  211  A    between atoms: _496  and  _497
REMARK  212  A    between atoms: _499  and  _501
REMARK  213  A    between atoms: _501  and  _502
REMARK  214  A    between atoms: _501  and  _504
REMARK  215  A    between atoms: _504  and  _505
REMARK                            x       y       z     vdW  Elec       q    Type
REMARK                         _______ _______ _______ _____ _____    ______ ____
ROOT
ATOM      1  O   HOH     1      -8.791  -1.084  12.179  0.00  0.00    +0.000 OA
ENDROOT
TORSDOF 0
REMARK  Name = ../refined-set-2016/2vvv/2vvv_pocket.pdb
REMARK  215 active torsions:
REMARK  status: ('A' for Active; 'I' for Inactive)
REMARK    1  A    between atoms: _1  and  _5
REMARK    2  A    between atoms: _5  and  _6
REMARK    3  A    between atoms: _5  and  _8
REMARK    4  A    between atoms: _8  and  _9
REMARK    5  A    between atoms: _12  and  _14
REMARK    6  A    between atoms: _14  and  _15
REMARK    7  A    between atoms: _14  and  _17
REMARK    8  A    between atoms: _20  and  _22
REMARK    9  A    between atoms: _22  and  _23
REMARK   10  A    between atoms: _22  and  _25
REMARK   11  A    between atoms: _25  and  _26
REMARK   12  A    between atoms: _31  and  _33
REMARK   13  A    between atoms: _33  and  _34
REMARK   14  A    between atoms: _33  and  _36
REMARK   15  A    between atoms: _36  and  _37
REMARK   16  A    between atoms: _37  and  _38
REMARK   17  A    between atoms: _43  and  _45
REMARK   18  A    between atoms: _45  and  _46
REMARK   19  A    between atoms: _45  and  _48
REMARK   20  A    between atoms: _48  and  _49
REMARK   21  A    between atoms: _52  and  _54
REMARK   22  A    between atoms: _54  and  _55
REMARK   23  A    between atoms: _54  and  _57
REMARK   24  A    between atoms: _57  and  _58
REMARK   25  A    between atoms: _58  and  _59
REMARK   26  A    between atoms: _59  and  _60
REMARK   27  A    between atoms: _60  and  _61
REMARK   28  A    between atoms: _65  and  _67
REMARK   29  A    between atoms: _67  and  _68
REMARK   30  A    between atoms: _67  and  _70
REMARK   31  A    between atoms: _70  and  _71
REMARK   32  A    between atoms: _71  and  _72
REMARK   33  A    between atoms: _75  and  _77
REMARK   34  A    between atoms: _77  and  _78
REMARK   35  A    between atoms: _77  and  _80
REMARK   36  A    between atoms: _80  and  _81
REMARK   37  A    between atoms: _84  and  _86
REMARK   38  A    between atoms: _86  and  _87
REMARK   39  A    between atoms: _86  and  _89
REMARK   40  A    between atoms: _89  and  _90
REMARK   41  A    between atoms: _95  and  _96
REMARK   42  A    between atoms: _98  and  _100
REMARK   43  A    between atoms: _100  and  _101
REMARK   44  A    between atoms: _100  and  _103
REMARK   45  A    between atoms: _103  and  _104
REMARK   46  A    between atoms: _107  and  _109
REMARK   47  A    between atoms: _109  and  _110
REMARK   48  A    between atoms: _109  and  _112
REMARK   49  A    between atoms: _112  and  _113
REMARK   50  A    between atoms: _116  and  _118
REMARK   51  A    between atoms: _118  and  _119
REMARK   52  A    between atoms: _118  and  _121
REMARK   53  A    between atoms: _124  and  _126
REMARK   54  A    between atoms: _126  and  _127
REMARK   55  A    between atoms: _126  and  _129
REMARK   56  A    between atoms: _129  and  _130
REMARK   57  A    between atoms: _130  and  _131
REMARK   58  A    between atoms: _131  and  _132
REMARK   59  A    between atoms: _141  and  _143
REMARK   60  A    between atoms: _143  and  _144
REMARK   61  A    between atoms: _143  and  _146
REMARK   62  A    between atoms: _146  and  _147
REMARK   63  A    between atoms: _147  and  _148
REMARK   64  A    between atoms: _151  and  _153
REMARK   65  A    between atoms: _153  and  _154
REMARK   66  A    between atoms: _153  and  _156
REMARK   67  A    between atoms: _156  and  _157
REMARK   68  A    between atoms: _157  and  _158
REMARK   69  A    between atoms: _158  and  _159
REMARK   70  A    between atoms: _159  and  _160
REMARK   71  A    between atoms: _164  and  _166
REMARK   72  A    between atoms: _166  and  _167
REMARK   73  A    between atoms: _166  and  _169
REMARK   74  A    between atoms: _172  and  _174
REMARK   75  A    between atoms: _174  and  _175
REMARK   76  A    between atoms: _174  and  _177
REMARK   77  A    between atoms: _177  and  _178
REMARK   78  A    between atoms: _180  and  _182
REMARK   79  A    between atoms: _182  and  _183
REMARK   80  A    between atoms: _182  and  _185
REMARK   81  A    between atoms: _185  and  _186
REMARK   82  A    between atoms: _188  and  _190
REMARK   83  A    between atoms: _190  and  _191
REMARK   84  A    between atoms: _190  and  _193
REMARK   85  A    between atoms: _193  and  _194
REMARK   86  A    between atoms: _200  and  _202
REMARK   87  A    between atoms: _202  and  _203
REMARK   88  A    between atoms: _202  and  _205
REMARK   89  A    between atoms: _205  and  _206
REMARK   90  A    between atoms: _209  and  _211
REMARK   91  A    between atoms: _211  and  _212
REMARK   92  A    between atoms: _211  and  _214
REMARK   93  A    between atoms: _214  and  _215
REMARK   94  A    between atoms: _218  and  _220
REMARK   95  A    between atoms: _220  and  _221
REMARK   96  A    between atoms: _220  and  _223
REMARK   97  A    between atoms: _223  and  _224
REMARK   98  A    between atoms: _227  and  _229
REMARK   99  A    between atoms: _229  and  _230
REMARK  100  A    between atoms: _229  and  _232
REMARK  101  A    between atoms: _232  and  _233
REMARK  102  A    between atoms: _233  and  _234
REMARK  103  A    between atoms: _236  and  _238
REMARK  104  A    between atoms: _238  and  _239
REMARK  105  A    between atoms: _238  and  _241
REMARK  106  A    between atoms: _241  and  _242
REMARK  107  A    between atoms: _248  and  _250
REMARK  108  A    between atoms: _250  and  _251
REMARK  109  A    between atoms: _250  and  _253
REMARK  110  A    between atoms: _255  and  _257
REMARK  111  A    between atoms: _257  and  _258
REMARK  112  A    between atoms: _261  and  _263
REMARK  113  A    between atoms: _263  and  _264
REMARK  114  A    between atoms: _266  and  _268
REMARK  115  A    between atoms: _268  and  _269
REMARK  116  A    between atoms: _268  and  _271
REMARK  117  A    between atoms: _271  and  _272
REMARK  118  A    between atoms: _272  and  _273
REMARK  119  A    between atoms: _276  and  _278
REMARK  120  A    between atoms: _278  and  _279
REMARK  121  A    between atoms: _278  and  _281
REMARK  122  A    between atoms: _281  and  _282
REMARK  123  A    between atoms: _285  and  _287
REMARK  124  A    between atoms: _287  and  _288
REMARK  125  A    between atoms: _291  and  _293
REMARK  126  A    between atoms: _293  and  _294
REMARK  127  A    between atoms: _293  and  _296
REMARK  128  A    between atoms: _296  and  _297
REMARK  129  A    between atoms: _297  and  _420
REMARK  130  A    between atoms: _298  and  _300
REMARK  131  A    between atoms: _300  and  _301
REMARK  132  A    between atoms: _300  and  _303
REMARK  133  A    between atoms: _303  and  _304
REMARK  134  A    between atoms: _304  and  _305
REMARK  135  A    between atoms: _310  and  _312
REMARK  136  A    between atoms: _312  and  _313
REMARK  137  A    between atoms: _315  and  _317
REMARK  138  A    between atoms: _317  and  _318
REMARK  139  A    between atoms: _317  and  _320
REMARK  140  A    between atoms: _320  and  _321
REMARK  141  A    between atoms: _324  and  _326
REMARK  142  A    between atoms: _326  and  _327
REMARK  143  A    between atoms: _326  and  _329
REMARK  144  A    between atoms: _329  and  _330
REMARK  145  A    between atoms: _332  and  _334
REMARK  146  A    between atoms: _334  and  _335
REMARK  147  A    between atoms: _337  and  _339
REMARK  148  A    between atoms: _339  and  _340
REMARK  149  A    between atoms: _342  and  _344
REMARK  150  A    between atoms: _344  and  _345
REMARK  151  A    between atoms: _344  and  _347
REMARK  152  A    between atoms: _347  and  _348
REMARK  153  A    between atoms: _353  and  _355
REMARK  154  A    between atoms: _355  and  _356
REMARK  155  A    between atoms: _355  and  _358
REMARK  156  A    between atoms: _358  and  _359
REMARK  157  A    between atoms: _362  and  _364
REMARK  158  A    between atoms: _364  and  _365
REMARK  159  A    between atoms: _364  and  _367
REMARK  160  A    between atoms: _370  and  _372
REMARK  161  A    between atoms: _372  and  _373
REMARK  162  A    between atoms: _372  and  _375
REMARK  163  A    between atoms: _375  and  _376
REMARK  164  A    between atoms: _378  and  _380
REMARK  165  A    between atoms: _380  and  _381
REMARK  166  A    between atoms: _380  and  _383
REMARK  167  A    between atoms: _383  and  _384
REMARK  168  A    between atoms: _394  and  _396
REMARK  169  A    between atoms: _396  and  _397
REMARK  170  A    between atoms: _399  and  _401
REMARK  171  A    between atoms: _401  and  _402
REMARK  172  A    between atoms: _401  and  _404
REMARK  173  A    between atoms: _404  and  _405
REMARK  174  A    between atoms: _405  and  _406
REMARK  175  A    between atoms: _409  and  _411
REMARK  176  A    between atoms: _411  and  _412
REMARK  177  A    between atoms: _414  and  _416
REMARK  178  A    between atoms: _416  and  _417
REMARK  179  A    between atoms: _416  and  _419
REMARK  180  A    between atoms: _419  and  _420
REMARK  181  A    between atoms: _421  and  _423
REMARK  182  A    between atoms: _423  and  _424
REMARK  183  A    between atoms: _427  and  _429
REMARK  184  A    between atoms: _429  and  _430
REMARK  185  A    between atoms: _429  and  _432
REMARK  186  A    between atoms: _432  and  _433
REMARK  187  A    between atoms: _433  and  _434
REMARK  188  A    between atoms: _434  and  _435
REMARK  189  A    between atoms: _444  and  _446
REMARK  190  A    between atoms: _446  and  _447
REMARK  191  A    between atoms: _446  and  _449
REMARK  192  A    between atoms: _449  and  _450
REMARK  193  A    between atoms: _450  and  _451
REMARK  194  A    between atoms: _451  and  _452
REMARK  195  A    between atoms: _452  and  _453
REMARK  196  A    between atoms: _457  and  _459
REMARK  197  A    between atoms: _459  and  _460
REMARK  198  A    between atoms: _459  and  _462
REMARK  199  A    between atoms: _462  and  _463
REMARK  200  A    between atoms: _468  and  _469
REMARK  201  A    between atoms: _471  and  _473
REMARK  202  A    between atoms: _473  and  _474
REMARK  203  A    between atoms: _476  and  _478
REMARK  204  A    between atoms: _478  and  _479
REMARK  205  A    between atoms: _478  and  _481
REMARK  206  A    between atoms: _481  and  _482
REMARK  207  A    between atoms: _485  and  _487
REMARK  208  A    between atoms: _487  and  _488
REMARK  209  A    between atoms: _487  and  _490
REMARK  210  A    between atoms: _490  and  _491
REMARK  211  A    between atoms: _496  and  _497
REMARK  212  A    between atoms: _499  and  _501
REMARK  213  A    between atoms: _501  and  _502
REMARK  214  A    between atoms: _501  and  _504
REMARK  215  A    between atoms: _504  and  _505
REMARK                            x       y       z     vdW  Elec       q    Type
REMARK                         _______ _______ _______ _____ _____    ______ ____
ROOT
ATOM      1  O   HOH     1       3.490  13.508  23.003  0.00  0.00    +0.000 OA
ENDROOT
TORSDOF 0
REMARK  Name = ../refined-set-2016/2vvv/2vvv_pocket.pdb
REMARK  215 active torsions:
REMARK  status: ('A' for Active; 'I' for Inactive)
REMARK    1  A    between atoms: _1  and  _5
REMARK    2  A    between atoms: _5  and  _6
REMARK    3  A    between atoms: _5  and  _8
REMARK    4  A    between atoms: _8  and  _9
REMARK    5  A    between atoms: _12  and  _14
REMARK    6  A    between atoms: _14  and  _15
REMARK    7  A    between atoms: _14  and  _17
REMARK    8  A    between atoms: _20  and  _22
REMARK    9  A    between atoms: _22  and  _23
REMARK   10  A    between atoms: _22  and  _25
REMARK   11  A    between atoms: _25  and  _26
REMARK   12  A    between atoms: _31  and  _33
REMARK   13  A    between atoms: _33  and  _34
REMARK   14  A    between atoms: _33  and  _36
REMARK   15  A    between atoms: _36  and  _37
REMARK   16  A    between atoms: _37  and  _38
REMARK   17  A    between atoms: _43  and  _45
REMARK   18  A    between atoms: _45  and  _46
REMARK   19  A    between atoms: _45  and  _48
REMARK   20  A    between atoms: _48  and  _49
REMARK   21  A    between atoms: _52  and  _54
REMARK   22  A    between atoms: _54  and  _55
REMARK   23  A    between atoms: _54  and  _57
REMARK   24  A    between atoms: _57  and  _58
REMARK   25  A    between atoms: _58  and  _59
REMARK   26  A    between atoms: _59  and  _60
REMARK   27  A    between atoms: _60  and  _61
REMARK   28  A    between atoms: _65  and  _67
REMARK   29  A    between atoms: _67  and  _68
REMARK   30  A    between atoms: _67  and  _70
REMARK   31  A    between atoms: _70  and  _71
REMARK   32  A    between atoms: _71  and  _72
REMARK   33  A    between atoms: _75  and  _77
REMARK   34  A    between atoms: _77  and  _78
REMARK   35  A    between atoms: _77  and  _80
REMARK   36  A    between atoms: _80  and  _81
REMARK   37  A    between atoms: _84  and  _86
REMARK   38  A    between atoms: _86  and  _87
REMARK   39  A    between atoms: _86  and  _89
REMARK   40  A    between atoms: _89  and  _90
REMARK   41  A    between atoms: _95  and  _96
REMARK   42  A    between atoms: _98  and  _100
REMARK   43  A    between atoms: _100  and  _101
REMARK   44  A    between atoms: _100  and  _103
REMARK   45  A    between atoms: _103  and  _104
REMARK   46  A    between atoms: _107  and  _109
REMARK   47  A    between atoms: _109  and  _110
REMARK   48  A    between atoms: _109  and  _112
REMARK   49  A    between atoms: _112  and  _113
REMARK   50  A    between atoms: _116  and  _118
REMARK   51  A    between atoms: _118  and  _119
REMARK   52  A    between atoms: _118  and  _121
REMARK   53  A    between atoms: _124  and  _126
REMARK   54  A    between atoms: _126  and  _127
REMARK   55  A    between atoms: _126  and  _129
REMARK   56  A    between atoms: _129  and  _130
REMARK   57  A    between atoms: _130  and  _131
REMARK   58  A    between atoms: _131  and  _132
REMARK   59  A    between atoms: _141  and  _143
REMARK   60  A    between atoms: _143  and  _144
REMARK   61  A    between atoms: _143  and  _146
REMARK   62  A    between atoms: _146  and  _147
REMARK   63  A    between atoms: _147  and  _148
REMARK   64  A    between atoms: _151  and  _153
REMARK   65  A    between atoms: _153  and  _154
REMARK   66  A    between atoms: _153  and  _156
REMARK   67  A    between atoms: _156  and  _157
REMARK   68  A    between atoms: _157  and  _158
REMARK   69  A    between atoms: _158  and  _159
REMARK   70  A    between atoms: _159  and  _160
REMARK   71  A    between atoms: _164  and  _166
REMARK   72  A    between atoms: _166  and  _167
REMARK   73  A    between atoms: _166  and  _169
REMARK   74  A    between atoms: _172  and  _174
REMARK   75  A    between atoms: _174  and  _175
REMARK   76  A    between atoms: _174  and  _177
REMARK   77  A    between atoms: _177  and  _178
REMARK   78  A    between atoms: _180  and  _182
REMARK   79  A    between atoms: _182  and  _183
REMARK   80  A    between atoms: _182  and  _185
REMARK   81  A    between atoms: _185  and  _186
REMARK   82  A    between atoms: _188  and  _190
REMARK   83  A    between atoms: _190  and  _191
REMARK   84  A    between atoms: _190  and  _193
REMARK   85  A    between atoms: _193  and  _194
REMARK   86  A    between atoms: _200  and  _202
REMARK   87  A    between atoms: _202  and  _203
REMARK   88  A    between atoms: _202  and  _205
REMARK   89  A    between atoms: _205  and  _206
REMARK   90  A    between atoms: _209  and  _211
REMARK   91  A    between atoms: _211  and  _212
REMARK   92  A    between atoms: _211  and  _214
REMARK   93  A    between atoms: _214  and  _215
REMARK   94  A    between atoms: _218  and  _220
REMARK   95  A    between atoms: _220  and  _221
REMARK   96  A    between atoms: _220  and  _223
REMARK   97  A    between atoms: _223  and  _224
REMARK   98  A    between atoms: _227  and  _229
REMARK   99  A    between atoms: _229  and  _230
REMARK  100  A    between atoms: _229  and  _232
REMARK  101  A    between atoms: _232  and  _233
REMARK  102  A    between atoms: _233  and  _234
REMARK  103  A    between atoms: _236  and  _238
REMARK  104  A    between atoms: _238  and  _239
REMARK  105  A    between atoms: _238  and  _241
REMARK  106  A    between atoms: _241  and  _242
REMARK  107  A    between atoms: _248  and  _250
REMARK  108  A    between atoms: _250  and  _251
REMARK  109  A    between atoms: _250  and  _253
REMARK  110  A    between atoms: _255  and  _257
REMARK  111  A    between atoms: _257  and  _258
REMARK  112  A    between atoms: _261  and  _263
REMARK  113  A    between atoms: _263  and  _264
REMARK  114  A    between atoms: _266  and  _268
REMARK  115  A    between atoms: _268  and  _269
REMARK  116  A    between atoms: _268  and  _271
REMARK  117  A    between atoms: _271  and  _272
REMARK  118  A    between atoms: _272  and  _273
REMARK  119  A    between atoms: _276  and  _278
REMARK  120  A    between atoms: _278  and  _279
REMARK  121  A    between atoms: _278  and  _281
REMARK  122  A    between atoms: _281  and  _282
REMARK  123  A    between atoms: _285  and  _287
REMARK  124  A    between atoms: _287  and  _288
REMARK  125  A    between atoms: _291  and  _293
REMARK  126  A    between atoms: _293  and  _294
REMARK  127  A    between atoms: _293  and  _296
REMARK  128  A    between atoms: _296  and  _297
REMARK  129  A    between atoms: _297  and  _420
REMARK  130  A    between atoms: _298  and  _300
REMARK  131  A    between atoms: _300  and  _301
REMARK  132  A    between atoms: _300  and  _303
REMARK  133  A    between atoms: _303  and  _304
REMARK  134  A    between atoms: _304  and  _305
REMARK  135  A    between atoms: _310  and  _312
REMARK  136  A    between atoms: _312  and  _313
REMARK  137  A    between atoms: _315  and  _317
REMARK  138  A    between atoms: _317  and  _318
REMARK  139  A    between atoms: _317  and  _320
REMARK  140  A    between atoms: _320  and  _321
REMARK  141  A    between atoms: _324  and  _326
REMARK  142  A    between atoms: _326  and  _327
REMARK  143  A    between atoms: _326  and  _329
REMARK  144  A    between atoms: _329  and  _330
REMARK  145  A    between atoms: _332  and  _334
REMARK  146  A    between atoms: _334  and  _335
REMARK  147  A    between atoms: _337  and  _339
REMARK  148  A    between atoms: _339  and  _340
REMARK  149  A    between atoms: _342  and  _344
REMARK  150  A    between atoms: _344  and  _345
REMARK  151  A    between atoms: _344  and  _347
REMARK  152  A    between atoms: _347  and  _348
REMARK  153  A    between atoms: _353  and  _355
REMARK  154  A    between atoms: _355  and  _356
REMARK  155  A    between atoms: _355  and  _358
REMARK  156  A    between atoms: _358  and  _359
REMARK  157  A    between atoms: _362  and  _364
REMARK  158  A    between atoms: _364  and  _365
REMARK  159  A    between atoms: _364  and  _367
REMARK  160  A    between atoms: _370  and  _372
REMARK  161  A    between atoms: _372  and  _373
REMARK  162  A    between atoms: _372  and  _375
REMARK  163  A    between atoms: _375  and  _376
REMARK  164  A    between atoms: _378  and  _380
REMARK  165  A    between atoms: _380  and  _381
REMARK  166  A    between atoms: _380  and  _383
REMARK  167  A    between atoms: _383  and  _384
REMARK  168  A    between atoms: _394  and  _396
REMARK  169  A    between atoms: _396  and  _397
REMARK  170  A    between atoms: _399  and  _401
REMARK  171  A    between atoms: _401  and  _402
REMARK  172  A    between atoms: _401  and  _404
REMARK  173  A    between atoms: _404  and  _405
REMARK  174  A    between atoms: _405  and  _406
REMARK  175  A    between atoms: _409  and  _411
REMARK  176  A    between atoms: _411  and  _412
REMARK  177  A    between atoms: _414  and  _416
REMARK  178  A    between atoms: _416  and  _417
REMARK  179  A    between atoms: _416  and  _419
REMARK  180  A    between atoms: _419  and  _420
REMARK  181  A    between atoms: _421  and  _423
REMARK  182  A    between atoms: _423  and  _424
REMARK  183  A    between atoms: _427  and  _429
REMARK  184  A    between atoms: _429  and  _430
REMARK  185  A    between atoms: _429  and  _432
REMARK  186  A    between atoms: _432  and  _433
REMARK  187  A    between atoms: _433  and  _434
REMARK  188  A    between atoms: _434  and  _435
REMARK  189  A    between atoms: _444  and  _446
REMARK  190  A    between atoms: _446  and  _447
REMARK  191  A    between atoms: _446  and  _449
REMARK  192  A    between atoms: _449  and  _450
REMARK  193  A    between atoms: _450  and  _451
REMARK  194  A    between atoms: _451  and  _452
REMARK  195  A    between atoms: _452  and  _453
REMARK  196  A    between atoms: _457  and  _459
REMARK  197  A    between atoms: _459  and  _460
REMARK  198  A    between atoms: _459  and  _462
REMARK  199  A    between atoms: _462  and  _463
REMARK  200  A    between atoms: _468  and  _469
REMARK  201  A    between atoms: _471  and  _473
REMARK  202  A    between atoms: _473  and  _474
REMARK  203  A    between atoms: _476  and  _478
REMARK  204  A    between atoms: _478  and  _479
REMARK  205  A    between atoms: _478  and  _481
REMARK  206  A    between atoms: _481  and  _482
REMARK  207  A    between atoms: _485  and  _487
REMARK  208  A    between atoms: _487  and  _488
REMARK  209  A    between atoms: _487  and  _490
REMARK  210  A    between atoms: _490  and  _491
REMARK  211  A    between atoms: _496  and  _497
REMARK  212  A    between atoms: _499  and  _501
REMARK  213  A    between atoms: _501  and  _502
REMARK  214  A    between atoms: _501  and  _504
REMARK  215  A    between atoms: _504  and  _505
REMARK                            x       y       z     vdW  Elec       q    Type
REMARK                         _______ _______ _______ _____ _____    ______ ____
ROOT
ATOM      1  O   HOH     1      -6.926  -1.769  13.676  0.00  0.00    +0.000 OA
ENDROOT
TORSDOF 0
REMARK  Name = ../refined-set-2016/2vvv/2vvv_pocket.pdb
REMARK  215 active torsions:
REMARK  status: ('A' for Active; 'I' for Inactive)
REMARK    1  A    between atoms: _1  and  _5
REMARK    2  A    between atoms: _5  and  _6
REMARK    3  A    between atoms: _5  and  _8
REMARK    4  A    between atoms: _8  and  _9
REMARK    5  A    between atoms: _12  and  _14
REMARK    6  A    between atoms: _14  and  _15
REMARK    7  A    between atoms: _14  and  _17
REMARK    8  A    between atoms: _20  and  _22
REMARK    9  A    between atoms: _22  and  _23
REMARK   10  A    between atoms: _22  and  _25
REMARK   11  A    between atoms: _25  and  _26
REMARK   12  A    between atoms: _31  and  _33
REMARK   13  A    between atoms: _33  and  _34
REMARK   14  A    between atoms: _33  and  _36
REMARK   15  A    between atoms: _36  and  _37
REMARK   16  A    between atoms: _37  and  _38
REMARK   17  A    between atoms: _43  and  _45
REMARK   18  A    between atoms: _45  and  _46
REMARK   19  A    between atoms: _45  and  _48
REMARK   20  A    between atoms: _48  and  _49
REMARK   21  A    between atoms: _52  and  _54
REMARK   22  A    between atoms: _54  and  _55
REMARK   23  A    between atoms: _54  and  _57
REMARK   24  A    between atoms: _57  and  _58
REMARK   25  A    between atoms: _58  and  _59
REMARK   26  A    between atoms: _59  and  _60
REMARK   27  A    between atoms: _60  and  _61
REMARK   28  A    between atoms: _65  and  _67
REMARK   29  A    between atoms: _67  and  _68
REMARK   30  A    between atoms: _67  and  _70
REMARK   31  A    between atoms: _70  and  _71
REMARK   32  A    between atoms: _71  and  _72
REMARK   33  A    between atoms: _75  and  _77
REMARK   34  A    between atoms: _77  and  _78
REMARK   35  A    between atoms: _77  and  _80
REMARK   36  A    between atoms: _80  and  _81
REMARK   37  A    between atoms: _84  and  _86
REMARK   38  A    between atoms: _86  and  _87
REMARK   39  A    between atoms: _86  and  _89
REMARK   40  A    between atoms: _89  and  _90
REMARK   41  A    between atoms: _95  and  _96
REMARK   42  A    between atoms: _98  and  _100
REMARK   43  A    between atoms: _100  and  _101
REMARK   44  A    between atoms: _100  and  _103
REMARK   45  A    between atoms: _103  and  _104
REMARK   46  A    between atoms: _107  and  _109
REMARK   47  A    between atoms: _109  and  _110
REMARK   48  A    between atoms: _109  and  _112
REMARK   49  A    between atoms: _112  and  _113
REMARK   50  A    between atoms: _116  and  _118
REMARK   51  A    between atoms: _118  and  _119
REMARK   52  A    between atoms: _118  and  _121
REMARK   53  A    between atoms: _124  and  _126
REMARK   54  A    between atoms: _126  and  _127
REMARK   55  A    between atoms: _126  and  _129
REMARK   56  A    between atoms: _129  and  _130
REMARK   57  A    between atoms: _130  and  _131
REMARK   58  A    between atoms: _131  and  _132
REMARK   59  A    between atoms: _141  and  _143
REMARK   60  A    between atoms: _143  and  _144
REMARK   61  A    between atoms: _143  and  _146
REMARK   62  A    between atoms: _146  and  _147
REMARK   63  A    between atoms: _147  and  _148
REMARK   64  A    between atoms: _151  and  _153
REMARK   65  A    between atoms: _153  and  _154
REMARK   66  A    between atoms: _153  and  _156
REMARK   67  A    between atoms: _156  and  _157
REMARK   68  A    between atoms: _157  and  _158
REMARK   69  A    between atoms: _158  and  _159
REMARK   70  A    between atoms: _159  and  _160
REMARK   71  A    between atoms: _164  and  _166
REMARK   72  A    between atoms: _166  and  _167
REMARK   73  A    between atoms: _166  and  _169
REMARK   74  A    between atoms: _172  and  _174
REMARK   75  A    between atoms: _174  and  _175
REMARK   76  A    between atoms: _174  and  _177
REMARK   77  A    between atoms: _177  and  _178
REMARK   78  A    between atoms: _180  and  _182
REMARK   79  A    between atoms: _182  and  _183
REMARK   80  A    between atoms: _182  and  _185
REMARK   81  A    between atoms: _185  and  _186
REMARK   82  A    between atoms: _188  and  _190
REMARK   83  A    between atoms: _190  and  _191
REMARK   84  A    between atoms: _190  and  _193
REMARK   85  A    between atoms: _193  and  _194
REMARK   86  A    between atoms: _200  and  _202
REMARK   87  A    between atoms: _202  and  _203
REMARK   88  A    between atoms: _202  and  _205
REMARK   89  A    between atoms: _205  and  _206
REMARK   90  A    between atoms: _209  and  _211
REMARK   91  A    between atoms: _211  and  _212
REMARK   92  A    between atoms: _211  and  _214
REMARK   93  A    between atoms: _214  and  _215
REMARK   94  A    between atoms: _218  and  _220
REMARK   95  A    between atoms: _220  and  _221
REMARK   96  A    between atoms: _220  and  _223
REMARK   97  A    between atoms: _223  and  _224
REMARK   98  A    between atoms: _227  and  _229
REMARK   99  A    between atoms: _229  and  _230
REMARK  100  A    between atoms: _229  and  _232
REMARK  101  A    between atoms: _232  and  _233
REMARK  102  A    between atoms: _233  and  _234
REMARK  103  A    between atoms: _236  and  _238
REMARK  104  A    between atoms: _238  and  _239
REMARK  105  A    between atoms: _238  and  _241
REMARK  106  A    between atoms: _241  and  _242
REMARK  107  A    between atoms: _248  and  _250
REMARK  108  A    between atoms: _250  and  _251
REMARK  109  A    between atoms: _250  and  _253
REMARK  110  A    between atoms: _255  and  _257
REMARK  111  A    between atoms: _257  and  _258
REMARK  112  A    between atoms: _261  and  _263
REMARK  113  A    between atoms: _263  and  _264
REMARK  114  A    between atoms: _266  and  _268
REMARK  115  A    between atoms: _268  and  _269
REMARK  116  A    between atoms: _268  and  _271
REMARK  117  A    between atoms: _271  and  _272
REMARK  118  A    between atoms: _272  and  _273
REMARK  119  A    between atoms: _276  and  _278
REMARK  120  A    between atoms: _278  and  _279
REMARK  121  A    between atoms: _278  and  _281
REMARK  122  A    between atoms: _281  and  _282
REMARK  123  A    between atoms: _285  and  _287
REMARK  124  A    between atoms: _287  and  _288
REMARK  125  A    between atoms: _291  and  _293
REMARK  126  A    between atoms: _293  and  _294
REMARK  127  A    between atoms: _293  and  _296
REMARK  128  A    between atoms: _296  and  _297
REMARK  129  A    between atoms: _297  and  _420
REMARK  130  A    between atoms: _298  and  _300
REMARK  131  A    between atoms: _300  and  _301
REMARK  132  A    between atoms: _300  and  _303
REMARK  133  A    between atoms: _303  and  _304
REMARK  134  A    between atoms: _304  and  _305
REMARK  135  A    between atoms: _310  and  _312
REMARK  136  A    between atoms: _312  and  _313
REMARK  137  A    between atoms: _315  and  _317
REMARK  138  A    between atoms: _317  and  _318
REMARK  139  A    between atoms: _317  and  _320
REMARK  140  A    between atoms: _320  and  _321
REMARK  141  A    between atoms: _324  and  _326
REMARK  142  A    between atoms: _326  and  _327
REMARK  143  A    between atoms: _326  and  _329
REMARK  144  A    between atoms: _329  and  _330
REMARK  145  A    between atoms: _332  and  _334
REMARK  146  A    between atoms: _334  and  _335
REMARK  147  A    between atoms: _337  and  _339
REMARK  148  A    between atoms: _339  and  _340
REMARK  149  A    between atoms: _342  and  _344
REMARK  150  A    between atoms: _344  and  _345
REMARK  151  A    between atoms: _344  and  _347
REMARK  152  A    between atoms: _347  and  _348
REMARK  153  A    between atoms: _353  and  _355
REMARK  154  A    between atoms: _355  and  _356
REMARK  155  A    between atoms: _355  and  _358
REMARK  156  A    between atoms: _358  and  _359
REMARK  157  A    between atoms: _362  and  _364
REMARK  158  A    between atoms: _364  and  _365
REMARK  159  A    between atoms: _364  and  _367
REMARK  160  A    between atoms: _370  and  _372
REMARK  161  A    between atoms: _372  and  _373
REMARK  162  A    between atoms: _372  and  _375
REMARK  163  A    between atoms: _375  and  _376
REMARK  164  A    between atoms: _378  and  _380
REMARK  165  A    between atoms: _380  and  _381
REMARK  166  A    between atoms: _380  and  _383
REMARK  167  A    between atoms: _383  and  _384
REMARK  168  A    between atoms: _394  and  _396
REMARK  169  A    between atoms: _396  and  _397
REMARK  170  A    between atoms: _399  and  _401
REMARK  171  A    between atoms: _401  and  _402
REMARK  172  A    between atoms: _401  and  _404
REMARK  173  A    between atoms: _404  and  _405
REMARK  174  A    between atoms: _405  and  _406
REMARK  175  A    between atoms: _409  and  _411
REMARK  176  A    between atoms: _411  and  _412
REMARK  177  A    between atoms: _414  and  _416
REMARK  178  A    between atoms: _416  and  _417
REMARK  179  A    between atoms: _416  and  _419
REMARK  180  A    between atoms: _419  and  _420
REMARK  181  A    between atoms: _421  and  _423
REMARK  182  A    between atoms: _423  and  _424
REMARK  183  A    between atoms: _427  and  _429
REMARK  184  A    between atoms: _429  and  _430
REMARK  185  A    between atoms: _429  and  _432
REMARK  186  A    between atoms: _432  and  _433
REMARK  187  A    between atoms: _433  and  _434
REMARK  188  A    between atoms: _434  and  _435
REMARK  189  A    between atoms: _444  and  _446
REMARK  190  A    between atoms: _446  and  _447
REMARK  191  A    between atoms: _446  and  _449
REMARK  192  A    between atoms: _449  and  _450
REMARK  193  A    between atoms: _450  and  _451
REMARK  194  A    between atoms: _451  and  _452
REMARK  195  A    between atoms: _452  and  _453
REMARK  196  A    between atoms: _457  and  _459
REMARK  197  A    between atoms: _459  and  _460
REMARK  198  A    between atoms: _459  and  _462
REMARK  199  A    between atoms: _462  and  _463
REMARK  200  A    between atoms: _468  and  _469
REMARK  201  A    between atoms: _471  and  _473
REMARK  202  A    between atoms: _473  and  _474
REMARK  203  A    between atoms: _476  and  _478
REMARK  204  A    between atoms: _478  and  _479
REMARK  205  A    between atoms: _478  and  _481
REMARK  206  A    between atoms: _481  and  _482
REMARK  207  A    between atoms: _485  and  _487
REMARK  208  A    between atoms: _487  and  _488
REMARK  209  A    between atoms: _487  and  _490
REMARK  210  A    between atoms: _490  and  _491
REMARK  211  A    between atoms: _496  and  _497
REMARK  212  A    between atoms: _499  and  _501
REMARK  213  A    between atoms: _501  and  _502
REMARK  214  A    between atoms: _501  and  _504
REMARK  215  A    between atoms: _504  and  _505
REMARK                            x       y       z     vdW  Elec       q    Type
REMARK                         _______ _______ _______ _____ _____    ______ ____
ROOT
ATOM      1  O   HOH     1       2.153  12.270  21.170  0.00  0.00    +0.000 OA
ENDROOT
TORSDOF 0
REMARK  Name = ../refined-set-2016/2vvv/2vvv_pocket.pdb
REMARK  215 active torsions:
REMARK  status: ('A' for Active; 'I' for Inactive)
REMARK    1  A    between atoms: _1  and  _5
REMARK    2  A    between atoms: _5  and  _6
REMARK    3  A    between atoms: _5  and  _8
REMARK    4  A    between atoms: _8  and  _9
REMARK    5  A    between atoms: _12  and  _14
REMARK    6  A    between atoms: _14  and  _15
REMARK    7  A    between atoms: _14  and  _17
REMARK    8  A    between atoms: _20  and  _22
REMARK    9  A    between atoms: _22  and  _23
REMARK   10  A    between atoms: _22  and  _25
REMARK   11  A    between atoms: _25  and  _26
REMARK   12  A    between atoms: _31  and  _33
REMARK   13  A    between atoms: _33  and  _34
REMARK   14  A    between atoms: _33  and  _36
REMARK   15  A    between atoms: _36  and  _37
REMARK   16  A    between atoms: _37  and  _38
REMARK   17  A    between atoms: _43  and  _45
REMARK   18  A    between atoms: _45  and  _46
REMARK   19  A    between atoms: _45  and  _48
REMARK   20  A    between atoms: _48  and  _49
REMARK   21  A    between atoms: _52  and  _54
REMARK   22  A    between atoms: _54  and  _55
REMARK   23  A    between atoms: _54  and  _57
REMARK   24  A    between atoms: _57  and  _58
REMARK   25  A    between atoms: _58  and  _59
REMARK   26  A    between atoms: _59  and  _60
REMARK   27  A    between atoms: _60  and  _61
REMARK   28  A    between atoms: _65  and  _67
REMARK   29  A    between atoms: _67  and  _68
REMARK   30  A    between atoms: _67  and  _70
REMARK   31  A    between atoms: _70  and  _71
REMARK   32  A    between atoms: _71  and  _72
REMARK   33  A    between atoms: _75  and  _77
REMARK   34  A    between atoms: _77  and  _78
REMARK   35  A    between atoms: _77  and  _80
REMARK   36  A    between atoms: _80  and  _81
REMARK   37  A    between atoms: _84  and  _86
REMARK   38  A    between atoms: _86  and  _87
REMARK   39  A    between atoms: _86  and  _89
REMARK   40  A    between atoms: _89  and  _90
REMARK   41  A    between atoms: _95  and  _96
REMARK   42  A    between atoms: _98  and  _100
REMARK   43  A    between atoms: _100  and  _101
REMARK   44  A    between atoms: _100  and  _103
REMARK   45  A    between atoms: _103  and  _104
REMARK   46  A    between atoms: _107  and  _109
REMARK   47  A    between atoms: _109  and  _110
REMARK   48  A    between atoms: _109  and  _112
REMARK   49  A    between atoms: _112  and  _113
REMARK   50  A    between atoms: _116  and  _118
REMARK   51  A    between atoms: _118  and  _119
REMARK   52  A    between atoms: _118  and  _121
REMARK   53  A    between atoms: _124  and  _126
REMARK   54  A    between atoms: _126  and  _127
REMARK   55  A    between atoms: _126  and  _129
REMARK   56  A    between atoms: _129  and  _130
REMARK   57  A    between atoms: _130  and  _131
REMARK   58  A    between atoms: _131  and  _132
REMARK   59  A    between atoms: _141  and  _143
REMARK   60  A    between atoms: _143  and  _144
REMARK   61  A    between atoms: _143  and  _146
REMARK   62  A    between atoms: _146  and  _147
REMARK   63  A    between atoms: _147  and  _148
REMARK   64  A    between atoms: _151  and  _153
REMARK   65  A    between atoms: _153  and  _154
REMARK   66  A    between atoms: _153  and  _156
REMARK   67  A    between atoms: _156  and  _157
REMARK   68  A    between atoms: _157  and  _158
REMARK   69  A    between atoms: _158  and  _159
REMARK   70  A    between atoms: _159  and  _160
REMARK   71  A    between atoms: _164  and  _166
REMARK   72  A    between atoms: _166  and  _167
REMARK   73  A    between atoms: _166  and  _169
REMARK   74  A    between atoms: _172  and  _174
REMARK   75  A    between atoms: _174  and  _175
REMARK   76  A    between atoms: _174  and  _177
REMARK   77  A    between atoms: _177  and  _178
REMARK   78  A    between atoms: _180  and  _182
REMARK   79  A    between atoms: _182  and  _183
REMARK   80  A    between atoms: _182  and  _185
REMARK   81  A    between atoms: _185  and  _186
REMARK   82  A    between atoms: _188  and  _190
REMARK   83  A    between atoms: _190  and  _191
REMARK   84  A    between atoms: _190  and  _193
REMARK   85  A    between atoms: _193  and  _194
REMARK   86  A    between atoms: _200  and  _202
REMARK   87  A    between atoms: _202  and  _203
REMARK   88  A    between atoms: _202  and  _205
REMARK   89  A    between atoms: _205  and  _206
REMARK   90  A    between atoms: _209  and  _211
REMARK   91  A    between atoms: _211  and  _212
REMARK   92  A    between atoms: _211  and  _214
REMARK   93  A    between atoms: _214  and  _215
REMARK   94  A    between atoms: _218  and  _220
REMARK   95  A    between atoms: _220  and  _221
REMARK   96  A    between atoms: _220  and  _223
REMARK   97  A    between atoms: _223  and  _224
REMARK   98  A    between atoms: _227  and  _229
REMARK   99  A    between atoms: _229  and  _230
REMARK  100  A    between atoms: _229  and  _232
REMARK  101  A    between atoms: _232  and  _233
REMARK  102  A    between atoms: _233  and  _234
REMARK  103  A    between atoms: _236  and  _238
REMARK  104  A    between atoms: _238  and  _239
REMARK  105  A    between atoms: _238  and  _241
REMARK  106  A    between atoms: _241  and  _242
REMARK  107  A    between atoms: _248  and  _250
REMARK  108  A    between atoms: _250  and  _251
REMARK  109  A    between atoms: _250  and  _253
REMARK  110  A    between atoms: _255  and  _257
REMARK  111  A    between atoms: _257  and  _258
REMARK  112  A    between atoms: _261  and  _263
REMARK  113  A    between atoms: _263  and  _264
REMARK  114  A    between atoms: _266  and  _268
REMARK  115  A    between atoms: _268  and  _269
REMARK  116  A    between atoms: _268  and  _271
REMARK  117  A    between atoms: _271  and  _272
REMARK  118  A    between atoms: _272  and  _273
REMARK  119  A    between atoms: _276  and  _278
REMARK  120  A    between atoms: _278  and  _279
REMARK  121  A    between atoms: _278  and  _281
REMARK  122  A    between atoms: _281  and  _282
REMARK  123  A    between atoms: _285  and  _287
REMARK  124  A    between atoms: _287  and  _288
REMARK  125  A    between atoms: _291  and  _293
REMARK  126  A    between atoms: _293  and  _294
REMARK  127  A    between atoms: _293  and  _296
REMARK  128  A    between atoms: _296  and  _297
REMARK  129  A    between atoms: _297  and  _420
REMARK  130  A    between atoms: _298  and  _300
REMARK  131  A    between atoms: _300  and  _301
REMARK  132  A    between atoms: _300  and  _303
REMARK  133  A    between atoms: _303  and  _304
REMARK  134  A    between atoms: _304  and  _305
REMARK  135  A    between atoms: _310  and  _312
REMARK  136  A    between atoms: _312  and  _313
REMARK  137  A    between atoms: _315  and  _317
REMARK  138  A    between atoms: _317  and  _318
REMARK  139  A    between atoms: _317  and  _320
REMARK  140  A    between atoms: _320  and  _321
REMARK  141  A    between atoms: _324  and  _326
REMARK  142  A    between atoms: _326  and  _327
REMARK  143  A    between atoms: _326  and  _329
REMARK  144  A    between atoms: _329  and  _330
REMARK  145  A    between atoms: _332  and  _334
REMARK  146  A    between atoms: _334  and  _335
REMARK  147  A    between atoms: _337  and  _339
REMARK  148  A    between atoms: _339  and  _340
REMARK  149  A    between atoms: _342  and  _344
REMARK  150  A    between atoms: _344  and  _345
REMARK  151  A    between atoms: _344  and  _347
REMARK  152  A    between atoms: _347  and  _348
REMARK  153  A    between atoms: _353  and  _355
REMARK  154  A    between atoms: _355  and  _356
REMARK  155  A    between atoms: _355  and  _358
REMARK  156  A    between atoms: _358  and  _359
REMARK  157  A    between atoms: _362  and  _364
REMARK  158  A    between atoms: _364  and  _365
REMARK  159  A    between atoms: _364  and  _367
REMARK  160  A    between atoms: _370  and  _372
REMARK  161  A    between atoms: _372  and  _373
REMARK  162  A    between atoms: _372  and  _375
REMARK  163  A    between atoms: _375  and  _376
REMARK  164  A    between atoms: _378  and  _380
REMARK  165  A    between atoms: _380  and  _381
REMARK  166  A    between atoms: _380  and  _383
REMARK  167  A    between atoms: _383  and  _384
REMARK  168  A    between atoms: _394  and  _396
REMARK  169  A    between atoms: _396  and  _397
REMARK  170  A    between atoms: _399  and  _401
REMARK  171  A    between atoms: _401  and  _402
REMARK  172  A    between atoms: _401  and  _404
REMARK  173  A    between atoms: _404  and  _405
REMARK  174  A    between atoms: _405  and  _406
REMARK  175  A    between atoms: _409  and  _411
REMARK  176  A    between atoms: _411  and  _412
REMARK  177  A    between atoms: _414  and  _416
REMARK  178  A    between atoms: _416  and  _417
REMARK  179  A    between atoms: _416  and  _419
REMARK  180  A    between atoms: _419  and  _420
REMARK  181  A    between atoms: _421  and  _423
REMARK  182  A    between atoms: _423  and  _424
REMARK  183  A    between atoms: _427  and  _429
REMARK  184  A    between atoms: _429  and  _430
REMARK  185  A    between atoms: _429  and  _432
REMARK  186  A    between atoms: _432  and  _433
REMARK  187  A    between atoms: _433  and  _434
REMARK  188  A    between atoms: _434  and  _435
REMARK  189  A    between atoms: _444  and  _446
REMARK  190  A    between atoms: _446  and  _447
REMARK  191  A    between atoms: _446  and  _449
REMARK  192  A    between atoms: _449  and  _450
REMARK  193  A    between atoms: _450  and  _451
REMARK  194  A    between atoms: _451  and  _452
REMARK  195  A    between atoms: _452  and  _453
REMARK  196  A    between atoms: _457  and  _459
REMARK  197  A    between atoms: _459  and  _460
REMARK  198  A    between atoms: _459  and  _462
REMARK  199  A    between atoms: _462  and  _463
REMARK  200  A    between atoms: _468  and  _469
REMARK  201  A    between atoms: _471  and  _473
REMARK  202  A    between atoms: _473  and  _474
REMARK  203  A    between atoms: _476  and  _478
REMARK  204  A    between atoms: _478  and  _479
REMARK  205  A    between atoms: _478  and  _481
REMARK  206  A    between atoms: _481  and  _482
REMARK  207  A    between atoms: _485  and  _487
REMARK  208  A    between atoms: _487  and  _488
REMARK  209  A    between atoms: _487  and  _490
REMARK  210  A    between atoms: _490  and  _491
REMARK  211  A    between atoms: _496  and  _497
REMARK  212  A    between atoms: _499  and  _501
REMARK  213  A    between atoms: _501  and  _502
REMARK  214  A    between atoms: _501  and  _504
REMARK  215  A    between atoms: _504  and  _505
REMARK                            x       y       z     vdW  Elec       q    Type
REMARK                         _______ _______ _______ _____ _____    ______ ____
ROOT
ATOM      1  O   HOH     1      -9.928  10.260  22.192  0.00  0.00    +0.000 OA
ENDROOT
TORSDOF 0
REMARK  Name = ../refined-set-2016/2vvv/2vvv_pocket.pdb
REMARK  215 active torsions:
REMARK  status: ('A' for Active; 'I' for Inactive)
REMARK    1  A    between atoms: _1  and  _5
REMARK    2  A    between atoms: _5  and  _6
REMARK    3  A    between atoms: _5  and  _8
REMARK    4  A    between atoms: _8  and  _9
REMARK    5  A    between atoms: _12  and  _14
REMARK    6  A    between atoms: _14  and  _15
REMARK    7  A    between atoms: _14  and  _17
REMARK    8  A    between atoms: _20  and  _22
REMARK    9  A    between atoms: _22  and  _23
REMARK   10  A    between atoms: _22  and  _25
REMARK   11  A    between atoms: _25  and  _26
REMARK   12  A    between atoms: _31  and  _33
REMARK   13  A    between atoms: _33  and  _34
REMARK   14  A    between atoms: _33  and  _36
REMARK   15  A    between atoms: _36  and  _37
REMARK   16  A    between atoms: _37  and  _38
REMARK   17  A    between atoms: _43  and  _45
REMARK   18  A    between atoms: _45  and  _46
REMARK   19  A    between atoms: _45  and  _48
REMARK   20  A    between atoms: _48  and  _49
REMARK   21  A    between atoms: _52  and  _54
REMARK   22  A    between atoms: _54  and  _55
REMARK   23  A    between atoms: _54  and  _57
REMARK   24  A    between atoms: _57  and  _58
REMARK   25  A    between atoms: _58  and  _59
REMARK   26  A    between atoms: _59  and  _60
REMARK   27  A    between atoms: _60  and  _61
REMARK   28  A    between atoms: _65  and  _67
REMARK   29  A    between atoms: _67  and  _68
REMARK   30  A    between atoms: _67  and  _70
REMARK   31  A    between atoms: _70  and  _71
REMARK   32  A    between atoms: _71  and  _72
REMARK   33  A    between atoms: _75  and  _77
REMARK   34  A    between atoms: _77  and  _78
REMARK   35  A    between atoms: _77  and  _80
REMARK   36  A    between atoms: _80  and  _81
REMARK   37  A    between atoms: _84  and  _86
REMARK   38  A    between atoms: _86  and  _87
REMARK   39  A    between atoms: _86  and  _89
REMARK   40  A    between atoms: _89  and  _90
REMARK   41  A    between atoms: _95  and  _96
REMARK   42  A    between atoms: _98  and  _100
REMARK   43  A    between atoms: _100  and  _101
REMARK   44  A    between atoms: _100  and  _103
REMARK   45  A    between atoms: _103  and  _104
REMARK   46  A    between atoms: _107  and  _109
REMARK   47  A    between atoms: _109  and  _110
REMARK   48  A    between atoms: _109  and  _112
REMARK   49  A    between atoms: _112  and  _113
REMARK   50  A    between atoms: _116  and  _118
REMARK   51  A    between atoms: _118  and  _119
REMARK   52  A    between atoms: _118  and  _121
REMARK   53  A    between atoms: _124  and  _126
REMARK   54  A    between atoms: _126  and  _127
REMARK   55  A    between atoms: _126  and  _129
REMARK   56  A    between atoms: _129  and  _130
REMARK   57  A    between atoms: _130  and  _131
REMARK   58  A    between atoms: _131  and  _132
REMARK   59  A    between atoms: _141  and  _143
REMARK   60  A    between atoms: _143  and  _144
REMARK   61  A    between atoms: _143  and  _146
REMARK   62  A    between atoms: _146  and  _147
REMARK   63  A    between atoms: _147  and  _148
REMARK   64  A    between atoms: _151  and  _153
REMARK   65  A    between atoms: _153  and  _154
REMARK   66  A    between atoms: _153  and  _156
REMARK   67  A    between atoms: _156  and  _157
REMARK   68  A    between atoms: _157  and  _158
REMARK   69  A    between atoms: _158  and  _159
REMARK   70  A    between atoms: _159  and  _160
REMARK   71  A    between atoms: _164  and  _166
REMARK   72  A    between atoms: _166  and  _167
REMARK   73  A    between atoms: _166  and  _169
REMARK   74  A    between atoms: _172  and  _174
REMARK   75  A    between atoms: _174  and  _175
REMARK   76  A    between atoms: _174  and  _177
REMARK   77  A    between atoms: _177  and  _178
REMARK   78  A    between atoms: _180  and  _182
REMARK   79  A    between atoms: _182  and  _183
REMARK   80  A    between atoms: _182  and  _185
REMARK   81  A    between atoms: _185  and  _186
REMARK   82  A    between atoms: _188  and  _190
REMARK   83  A    between atoms: _190  and  _191
REMARK   84  A    between atoms: _190  and  _193
REMARK   85  A    between atoms: _193  and  _194
REMARK   86  A    between atoms: _200  and  _202
REMARK   87  A    between atoms: _202  and  _203
REMARK   88  A    between atoms: _202  and  _205
REMARK   89  A    between atoms: _205  and  _206
REMARK   90  A    between atoms: _209  and  _211
REMARK   91  A    between atoms: _211  and  _212
REMARK   92  A    between atoms: _211  and  _214
REMARK   93  A    between atoms: _214  and  _215
REMARK   94  A    between atoms: _218  and  _220
REMARK   95  A    between atoms: _220  and  _221
REMARK   96  A    between atoms: _220  and  _223
REMARK   97  A    between atoms: _223  and  _224
REMARK   98  A    between atoms: _227  and  _229
REMARK   99  A    between atoms: _229  and  _230
REMARK  100  A    between atoms: _229  and  _232
REMARK  101  A    between atoms: _232  and  _233
REMARK  102  A    between atoms: _233  and  _234
REMARK  103  A    between atoms: _236  and  _238
REMARK  104  A    between atoms: _238  and  _239
REMARK  105  A    between atoms: _238  and  _241
REMARK  106  A    between atoms: _241  and  _242
REMARK  107  A    between atoms: _248  and  _250
REMARK  108  A    between atoms: _250  and  _251
REMARK  109  A    between atoms: _250  and  _253
REMARK  110  A    between atoms: _255  and  _257
REMARK  111  A    between atoms: _257  and  _258
REMARK  112  A    between atoms: _261  and  _263
REMARK  113  A    between atoms: _263  and  _264
REMARK  114  A    between atoms: _266  and  _268
REMARK  115  A    between atoms: _268  and  _269
REMARK  116  A    between atoms: _268  and  _271
REMARK  117  A    between atoms: _271  and  _272
REMARK  118  A    between atoms: _272  and  _273
REMARK  119  A    between atoms: _276  and  _278
REMARK  120  A    between atoms: _278  and  _279
REMARK  121  A    between atoms: _278  and  _281
REMARK  122  A    between atoms: _281  and  _282
REMARK  123  A    between atoms: _285  and  _287
REMARK  124  A    between atoms: _287  and  _288
REMARK  125  A    between atoms: _291  and  _293
REMARK  126  A    between atoms: _293  and  _294
REMARK  127  A    between atoms: _293  and  _296
REMARK  128  A    between atoms: _296  and  _297
REMARK  129  A    between atoms: _297  and  _420
REMARK  130  A    between atoms: _298  and  _300
REMARK  131  A    between atoms: _300  and  _301
REMARK  132  A    between atoms: _300  and  _303
REMARK  133  A    between atoms: _303  and  _304
REMARK  134  A    between atoms: _304  and  _305
REMARK  135  A    between atoms: _310  and  _312
REMARK  136  A    between atoms: _312  and  _313
REMARK  137  A    between atoms: _315  and  _317
REMARK  138  A    between atoms: _317  and  _318
REMARK  139  A    between atoms: _317  and  _320
REMARK  140  A    between atoms: _320  and  _321
REMARK  141  A    between atoms: _324  and  _326
REMARK  142  A    between atoms: _326  and  _327
REMARK  143  A    between atoms: _326  and  _329
REMARK  144  A    between atoms: _329  and  _330
REMARK  145  A    between atoms: _332  and  _334
REMARK  146  A    between atoms: _334  and  _335
REMARK  147  A    between atoms: _337  and  _339
REMARK  148  A    between atoms: _339  and  _340
REMARK  149  A    between atoms: _342  and  _344
REMARK  150  A    between atoms: _344  and  _345
REMARK  151  A    between atoms: _344  and  _347
REMARK  152  A    between atoms: _347  and  _348
REMARK  153  A    between atoms: _353  and  _355
REMARK  154  A    between atoms: _355  and  _356
REMARK  155  A    between atoms: _355  and  _358
REMARK  156  A    between atoms: _358  and  _359
REMARK  157  A    between atoms: _362  and  _364
REMARK  158  A    between atoms: _364  and  _365
REMARK  159  A    between atoms: _364  and  _367
REMARK  160  A    between atoms: _370  and  _372
REMARK  161  A    between atoms: _372  and  _373
REMARK  162  A    between atoms: _372  and  _375
REMARK  163  A    between atoms: _375  and  _376
REMARK  164  A    between atoms: _378  and  _380
REMARK  165  A    between atoms: _380  and  _381
REMARK  166  A    between atoms: _380  and  _383
REMARK  167  A    between atoms: _383  and  _384
REMARK  168  A    between atoms: _394  and  _396
REMARK  169  A    between atoms: _396  and  _397
REMARK  170  A    between atoms: _399  and  _401
REMARK  171  A    between atoms: _401  and  _402
REMARK  172  A    between atoms: _401  and  _404
REMARK  173  A    between atoms: _404  and  _405
REMARK  174  A    between atoms: _405  and  _406
REMARK  175  A    between atoms: _409  and  _411
REMARK  176  A    between atoms: _411  and  _412
REMARK  177  A    between atoms: _414  and  _416
REMARK  178  A    between atoms: _416  and  _417
REMARK  179  A    between atoms: _416  and  _419
REMARK  180  A    between atoms: _419  and  _420
REMARK  181  A    between atoms: _421  and  _423
REMARK  182  A    between atoms: _423  and  _424
REMARK  183  A    between atoms: _427  and  _429
REMARK  184  A    between atoms: _429  and  _430
REMARK  185  A    between atoms: _429  and  _432
REMARK  186  A    between atoms: _432  and  _433
REMARK  187  A    between atoms: _433  and  _434
REMARK  188  A    between atoms: _434  and  _435
REMARK  189  A    between atoms: _444  and  _446
REMARK  190  A    between atoms: _446  and  _447
REMARK  191  A    between atoms: _446  and  _449
REMARK  192  A    between atoms: _449  and  _450
REMARK  193  A    between atoms: _450  and  _451
REMARK  194  A    between atoms: _451  and  _452
REMARK  195  A    between atoms: _452  and  _453
REMARK  196  A    between atoms: _457  and  _459
REMARK  197  A    between atoms: _459  and  _460
REMARK  198  A    between atoms: _459  and  _462
REMARK  199  A    between atoms: _462  and  _463
REMARK  200  A    between atoms: _468  and  _469
REMARK  201  A    between atoms: _471  and  _473
REMARK  202  A    between atoms: _473  and  _474
REMARK  203  A    between atoms: _476  and  _478
REMARK  204  A    between atoms: _478  and  _479
REMARK  205  A    between atoms: _478  and  _481
REMARK  206  A    between atoms: _481  and  _482
REMARK  207  A    between atoms: _485  and  _487
REMARK  208  A    between atoms: _487  and  _488
REMARK  209  A    between atoms: _487  and  _490
REMARK  210  A    between atoms: _490  and  _491
REMARK  211  A    between atoms: _496  and  _497
REMARK  212  A    between atoms: _499  and  _501
REMARK  213  A    between atoms: _501  and  _502
REMARK  214  A    between atoms: _501  and  _504
REMARK  215  A    between atoms: _504  and  _505
REMARK                            x       y       z     vdW  Elec       q    Type
REMARK                         _______ _______ _______ _____ _____    ______ ____
ROOT
ATOM      1  O   HOH     1      -6.513   0.192  16.020  0.00  0.00    +0.000 OA
ENDROOT
TORSDOF 0
REMARK  Name = ../refined-set-2016/2vvv/2vvv_pocket.pdb
REMARK  215 active torsions:
REMARK  status: ('A' for Active; 'I' for Inactive)
REMARK    1  A    between atoms: _1  and  _5
REMARK    2  A    between atoms: _5  and  _6
REMARK    3  A    between atoms: _5  and  _8
REMARK    4  A    between atoms: _8  and  _9
REMARK    5  A    between atoms: _12  and  _14
REMARK    6  A    between atoms: _14  and  _15
REMARK    7  A    between atoms: _14  and  _17
REMARK    8  A    between atoms: _20  and  _22
REMARK    9  A    between atoms: _22  and  _23
REMARK   10  A    between atoms: _22  and  _25
REMARK   11  A    between atoms: _25  and  _26
REMARK   12  A    between atoms: _31  and  _33
REMARK   13  A    between atoms: _33  and  _34
REMARK   14  A    between atoms: _33  and  _36
REMARK   15  A    between atoms: _36  and  _37
REMARK   16  A    between atoms: _37  and  _38
REMARK   17  A    between atoms: _43  and  _45
REMARK   18  A    between atoms: _45  and  _46
REMARK   19  A    between atoms: _45  and  _48
REMARK   20  A    between atoms: _48  and  _49
REMARK   21  A    between atoms: _52  and  _54
REMARK   22  A    between atoms: _54  and  _55
REMARK   23  A    between atoms: _54  and  _57
REMARK   24  A    between atoms: _57  and  _58
REMARK   25  A    between atoms: _58  and  _59
REMARK   26  A    between atoms: _59  and  _60
REMARK   27  A    between atoms: _60  and  _61
REMARK   28  A    between atoms: _65  and  _67
REMARK   29  A    between atoms: _67  and  _68
REMARK   30  A    between atoms: _67  and  _70
REMARK   31  A    between atoms: _70  and  _71
REMARK   32  A    between atoms: _71  and  _72
REMARK   33  A    between atoms: _75  and  _77
REMARK   34  A    between atoms: _77  and  _78
REMARK   35  A    between atoms: _77  and  _80
REMARK   36  A    between atoms: _80  and  _81
REMARK   37  A    between atoms: _84  and  _86
REMARK   38  A    between atoms: _86  and  _87
REMARK   39  A    between atoms: _86  and  _89
REMARK   40  A    between atoms: _89  and  _90
REMARK   41  A    between atoms: _95  and  _96
REMARK   42  A    between atoms: _98  and  _100
REMARK   43  A    between atoms: _100  and  _101
REMARK   44  A    between atoms: _100  and  _103
REMARK   45  A    between atoms: _103  and  _104
REMARK   46  A    between atoms: _107  and  _109
REMARK   47  A    between atoms: _109  and  _110
REMARK   48  A    between atoms: _109  and  _112
REMARK   49  A    between atoms: _112  and  _113
REMARK   50  A    between atoms: _116  and  _118
REMARK   51  A    between atoms: _118  and  _119
REMARK   52  A    between atoms: _118  and  _121
REMARK   53  A    between atoms: _124  and  _126
REMARK   54  A    between atoms: _126  and  _127
REMARK   55  A    between atoms: _126  and  _129
REMARK   56  A    between atoms: _129  and  _130
REMARK   57  A    between atoms: _130  and  _131
REMARK   58  A    between atoms: _131  and  _132
REMARK   59  A    between atoms: _141  and  _143
REMARK   60  A    between atoms: _143  and  _144
REMARK   61  A    between atoms: _143  and  _146
REMARK   62  A    between atoms: _146  and  _147
REMARK   63  A    between atoms: _147  and  _148
REMARK   64  A    between atoms: _151  and  _153
REMARK   65  A    between atoms: _153  and  _154
REMARK   66  A    between atoms: _153  and  _156
REMARK   67  A    between atoms: _156  and  _157
REMARK   68  A    between atoms: _157  and  _158
REMARK   69  A    between atoms: _158  and  _159
REMARK   70  A    between atoms: _159  and  _160
REMARK   71  A    between atoms: _164  and  _166
REMARK   72  A    between atoms: _166  and  _167
REMARK   73  A    between atoms: _166  and  _169
REMARK   74  A    between atoms: _172  and  _174
REMARK   75  A    between atoms: _174  and  _175
REMARK   76  A    between atoms: _174  and  _177
REMARK   77  A    between atoms: _177  and  _178
REMARK   78  A    between atoms: _180  and  _182
REMARK   79  A    between atoms: _182  and  _183
REMARK   80  A    between atoms: _182  and  _185
REMARK   81  A    between atoms: _185  and  _186
REMARK   82  A    between atoms: _188  and  _190
REMARK   83  A    between atoms: _190  and  _191
REMARK   84  A    between atoms: _190  and  _193
REMARK   85  A    between atoms: _193  and  _194
REMARK   86  A    between atoms: _200  and  _202
REMARK   87  A    between atoms: _202  and  _203
REMARK   88  A    between atoms: _202  and  _205
REMARK   89  A    between atoms: _205  and  _206
REMARK   90  A    between atoms: _209  and  _211
REMARK   91  A    between atoms: _211  and  _212
REMARK   92  A    between atoms: _211  and  _214
REMARK   93  A    between atoms: _214  and  _215
REMARK   94  A    between atoms: _218  and  _220
REMARK   95  A    between atoms: _220  and  _221
REMARK   96  A    between atoms: _220  and  _223
REMARK   97  A    between atoms: _223  and  _224
REMARK   98  A    between atoms: _227  and  _229
REMARK   99  A    between atoms: _229  and  _230
REMARK  100  A    between atoms: _229  and  _232
REMARK  101  A    between atoms: _232  and  _233
REMARK  102  A    between atoms: _233  and  _234
REMARK  103  A    between atoms: _236  and  _238
REMARK  104  A    between atoms: _238  and  _239
REMARK  105  A    between atoms: _238  and  _241
REMARK  106  A    between atoms: _241  and  _242
REMARK  107  A    between atoms: _248  and  _250
REMARK  108  A    between atoms: _250  and  _251
REMARK  109  A    between atoms: _250  and  _253
REMARK  110  A    between atoms: _255  and  _257
REMARK  111  A    between atoms: _257  and  _258
REMARK  112  A    between atoms: _261  and  _263
REMARK  113  A    between atoms: _263  and  _264
REMARK  114  A    between atoms: _266  and  _268
REMARK  115  A    between atoms: _268  and  _269
REMARK  116  A    between atoms: _268  and  _271
REMARK  117  A    between atoms: _271  and  _272
REMARK  118  A    between atoms: _272  and  _273
REMARK  119  A    between atoms: _276  and  _278
REMARK  120  A    between atoms: _278  and  _279
REMARK  121  A    between atoms: _278  and  _281
REMARK  122  A    between atoms: _281  and  _282
REMARK  123  A    between atoms: _285  and  _287
REMARK  124  A    between atoms: _287  and  _288
REMARK  125  A    between atoms: _291  and  _293
REMARK  126  A    between atoms: _293  and  _294
REMARK  127  A    between atoms: _293  and  _296
REMARK  128  A    between atoms: _296  and  _297
REMARK  129  A    between atoms: _297  and  _420
REMARK  130  A    between atoms: _298  and  _300
REMARK  131  A    between atoms: _300  and  _301
REMARK  132  A    between atoms: _300  and  _303
REMARK  133  A    between atoms: _303  and  _304
REMARK  134  A    between atoms: _304  and  _305
REMARK  135  A    between atoms: _310  and  _312
REMARK  136  A    between atoms: _312  and  _313
REMARK  137  A    between atoms: _315  and  _317
REMARK  138  A    between atoms: _317  and  _318
REMARK  139  A    between atoms: _317  and  _320
REMARK  140  A    between atoms: _320  and  _321
REMARK  141  A    between atoms: _324  and  _326
REMARK  142  A    between atoms: _326  and  _327
REMARK  143  A    between atoms: _326  and  _329
REMARK  144  A    between atoms: _329  and  _330
REMARK  145  A    between atoms: _332  and  _334
REMARK  146  A    between atoms: _334  and  _335
REMARK  147  A    between atoms: _337  and  _339
REMARK  148  A    between atoms: _339  and  _340
REMARK  149  A    between atoms: _342  and  _344
REMARK  150  A    between atoms: _344  and  _345
REMARK  151  A    between atoms: _344  and  _347
REMARK  152  A    between atoms: _347  and  _348
REMARK  153  A    between atoms: _353  and  _355
REMARK  154  A    between atoms: _355  and  _356
REMARK  155  A    between atoms: _355  and  _358
REMARK  156  A    between atoms: _358  and  _359
REMARK  157  A    between atoms: _362  and  _364
REMARK  158  A    between atoms: _364  and  _365
REMARK  159  A    between atoms: _364  and  _367
REMARK  160  A    between atoms: _370  and  _372
REMARK  161  A    between atoms: _372  and  _373
REMARK  162  A    between atoms: _372  and  _375
REMARK  163  A    between atoms: _375  and  _376
REMARK  164  A    between atoms: _378  and  _380
REMARK  165  A    between atoms: _380  and  _381
REMARK  166  A    between atoms: _380  and  _383
REMARK  167  A    between atoms: _383  and  _384
REMARK  168  A    between atoms: _394  and  _396
REMARK  169  A    between atoms: _396  and  _397
REMARK  170  A    between atoms: _399  and  _401
REMARK  171  A    between atoms: _401  and  _402
REMARK  172  A    between atoms: _401  and  _404
REMARK  173  A    between atoms: _404  and  _405
REMARK  174  A    between atoms: _405  and  _406
REMARK  175  A    between atoms: _409  and  _411
REMARK  176  A    between atoms: _411  and  _412
REMARK  177  A    between atoms: _414  and  _416
REMARK  178  A    between atoms: _416  and  _417
REMARK  179  A    between atoms: _416  and  _419
REMARK  180  A    between atoms: _419  and  _420
REMARK  181  A    between atoms: _421  and  _423
REMARK  182  A    between atoms: _423  and  _424
REMARK  183  A    between atoms: _427  and  _429
REMARK  184  A    between atoms: _429  and  _430
REMARK  185  A    between atoms: _429  and  _432
REMARK  186  A    between atoms: _432  and  _433
REMARK  187  A    between atoms: _433  and  _434
REMARK  188  A    between atoms: _434  and  _435
REMARK  189  A    between atoms: _444  and  _446
REMARK  190  A    between atoms: _446  and  _447
REMARK  191  A    between atoms: _446  and  _449
REMARK  192  A    between atoms: _449  and  _450
REMARK  193  A    between atoms: _450  and  _451
REMARK  194  A    between atoms: _451  and  _452
REMARK  195  A    between atoms: _452  and  _453
REMARK  196  A    between atoms: _457  and  _459
REMARK  197  A    between atoms: _459  and  _460
REMARK  198  A    between atoms: _459  and  _462
REMARK  199  A    between atoms: _462  and  _463
REMARK  200  A    between atoms: _468  and  _469
REMARK  201  A    between atoms: _471  and  _473
REMARK  202  A    between atoms: _473  and  _474
REMARK  203  A    between atoms: _476  and  _478
REMARK  204  A    between atoms: _478  and  _479
REMARK  205  A    between atoms: _478  and  _481
REMARK  206  A    between atoms: _481  and  _482
REMARK  207  A    between atoms: _485  and  _487
REMARK  208  A    between atoms: _487  and  _488
REMARK  209  A    between atoms: _487  and  _490
REMARK  210  A    between atoms: _490  and  _491
REMARK  211  A    between atoms: _496  and  _497
REMARK  212  A    between atoms: _499  and  _501
REMARK  213  A    between atoms: _501  and  _502
REMARK  214  A    between atoms: _501  and  _504
REMARK  215  A    between atoms: _504  and  _505
REMARK                            x       y       z     vdW  Elec       q    Type
REMARK                         _______ _______ _______ _____ _____    ______ ____
ROOT
ATOM      1  O   HOH     1      -1.278  11.506  19.276  0.00  0.00    +0.000 OA
ENDROOT
TORSDOF 0
REMARK  Name = ../refined-set-2016/2vvv/2vvv_pocket.pdb
REMARK  215 active torsions:
REMARK  status: ('A' for Active; 'I' for Inactive)
REMARK    1  A    between atoms: _1  and  _5
REMARK    2  A    between atoms: _5  and  _6
REMARK    3  A    between atoms: _5  and  _8
REMARK    4  A    between atoms: _8  and  _9
REMARK    5  A    between atoms: _12  and  _14
REMARK    6  A    between atoms: _14  and  _15
REMARK    7  A    between atoms: _14  and  _17
REMARK    8  A    between atoms: _20  and  _22
REMARK    9  A    between atoms: _22  and  _23
REMARK   10  A    between atoms: _22  and  _25
REMARK   11  A    between atoms: _25  and  _26
REMARK   12  A    between atoms: _31  and  _33
REMARK   13  A    between atoms: _33  and  _34
REMARK   14  A    between atoms: _33  and  _36
REMARK   15  A    between atoms: _36  and  _37
REMARK   16  A    between atoms: _37  and  _38
REMARK   17  A    between atoms: _43  and  _45
REMARK   18  A    between atoms: _45  and  _46
REMARK   19  A    between atoms: _45  and  _48
REMARK   20  A    between atoms: _48  and  _49
REMARK   21  A    between atoms: _52  and  _54
REMARK   22  A    between atoms: _54  and  _55
REMARK   23  A    between atoms: _54  and  _57
REMARK   24  A    between atoms: _57  and  _58
REMARK   25  A    between atoms: _58  and  _59
REMARK   26  A    between atoms: _59  and  _60
REMARK   27  A    between atoms: _60  and  _61
REMARK   28  A    between atoms: _65  and  _67
REMARK   29  A    between atoms: _67  and  _68
REMARK   30  A    between atoms: _67  and  _70
REMARK   31  A    between atoms: _70  and  _71
REMARK   32  A    between atoms: _71  and  _72
REMARK   33  A    between atoms: _75  and  _77
REMARK   34  A    between atoms: _77  and  _78
REMARK   35  A    between atoms: _77  and  _80
REMARK   36  A    between atoms: _80  and  _81
REMARK   37  A    between atoms: _84  and  _86
REMARK   38  A    between atoms: _86  and  _87
REMARK   39  A    between atoms: _86  and  _89
REMARK   40  A    between atoms: _89  and  _90
REMARK   41  A    between atoms: _95  and  _96
REMARK   42  A    between atoms: _98  and  _100
REMARK   43  A    between atoms: _100  and  _101
REMARK   44  A    between atoms: _100  and  _103
REMARK   45  A    between atoms: _103  and  _104
REMARK   46  A    between atoms: _107  and  _109
REMARK   47  A    between atoms: _109  and  _110
REMARK   48  A    between atoms: _109  and  _112
REMARK   49  A    between atoms: _112  and  _113
REMARK   50  A    between atoms: _116  and  _118
REMARK   51  A    between atoms: _118  and  _119
REMARK   52  A    between atoms: _118  and  _121
REMARK   53  A    between atoms: _124  and  _126
REMARK   54  A    between atoms: _126  and  _127
REMARK   55  A    between atoms: _126  and  _129
REMARK   56  A    between atoms: _129  and  _130
REMARK   57  A    between atoms: _130  and  _131
REMARK   58  A    between atoms: _131  and  _132
REMARK   59  A    between atoms: _141  and  _143
REMARK   60  A    between atoms: _143  and  _144
REMARK   61  A    between atoms: _143  and  _146
REMARK   62  A    between atoms: _146  and  _147
REMARK   63  A    between atoms: _147  and  _148
REMARK   64  A    between atoms: _151  and  _153
REMARK   65  A    between atoms: _153  and  _154
REMARK   66  A    between atoms: _153  and  _156
REMARK   67  A    between atoms: _156  and  _157
REMARK   68  A    between atoms: _157  and  _158
REMARK   69  A    between atoms: _158  and  _159
REMARK   70  A    between atoms: _159  and  _160
REMARK   71  A    between atoms: _164  and  _166
REMARK   72  A    between atoms: _166  and  _167
REMARK   73  A    between atoms: _166  and  _169
REMARK   74  A    between atoms: _172  and  _174
REMARK   75  A    between atoms: _174  and  _175
REMARK   76  A    between atoms: _174  and  _177
REMARK   77  A    between atoms: _177  and  _178
REMARK   78  A    between atoms: _180  and  _182
REMARK   79  A    between atoms: _182  and  _183
REMARK   80  A    between atoms: _182  and  _185
REMARK   81  A    between atoms: _185  and  _186
REMARK   82  A    between atoms: _188  and  _190
REMARK   83  A    between atoms: _190  and  _191
REMARK   84  A    between atoms: _190  and  _193
REMARK   85  A    between atoms: _193  and  _194
REMARK   86  A    between atoms: _200  and  _202
REMARK   87  A    between atoms: _202  and  _203
REMARK   88  A    between atoms: _202  and  _205
REMARK   89  A    between atoms: _205  and  _206
REMARK   90  A    between atoms: _209  and  _211
REMARK   91  A    between atoms: _211  and  _212
REMARK   92  A    between atoms: _211  and  _214
REMARK   93  A    between atoms: _214  and  _215
REMARK   94  A    between atoms: _218  and  _220
REMARK   95  A    between atoms: _220  and  _221
REMARK   96  A    between atoms: _220  and  _223
REMARK   97  A    between atoms: _223  and  _224
REMARK   98  A    between atoms: _227  and  _229
REMARK   99  A    between atoms: _229  and  _230
REMARK  100  A    between atoms: _229  and  _232
REMARK  101  A    between atoms: _232  and  _233
REMARK  102  A    between atoms: _233  and  _234
REMARK  103  A    between atoms: _236  and  _238
REMARK  104  A    between atoms: _238  and  _239
REMARK  105  A    between atoms: _238  and  _241
REMARK  106  A    between atoms: _241  and  _242
REMARK  107  A    between atoms: _248  and  _250
REMARK  108  A    between atoms: _250  and  _251
REMARK  109  A    between atoms: _250  and  _253
REMARK  110  A    between atoms: _255  and  _257
REMARK  111  A    between atoms: _257  and  _258
REMARK  112  A    between atoms: _261  and  _263
REMARK  113  A    between atoms: _263  and  _264
REMARK  114  A    between atoms: _266  and  _268
REMARK  115  A    between atoms: _268  and  _269
REMARK  116  A    between atoms: _268  and  _271
REMARK  117  A    between atoms: _271  and  _272
REMARK  118  A    between atoms: _272  and  _273
REMARK  119  A    between atoms: _276  and  _278
REMARK  120  A    between atoms: _278  and  _279
REMARK  121  A    between atoms: _278  and  _281
REMARK  122  A    between atoms: _281  and  _282
REMARK  123  A    between atoms: _285  and  _287
REMARK  124  A    between atoms: _287  and  _288
REMARK  125  A    between atoms: _291  and  _293
REMARK  126  A    between atoms: _293  and  _294
REMARK  127  A    between atoms: _293  and  _296
REMARK  128  A    between atoms: _296  and  _297
REMARK  129  A    between atoms: _297  and  _420
REMARK  130  A    between atoms: _298  and  _300
REMARK  131  A    between atoms: _300  and  _301
REMARK  132  A    between atoms: _300  and  _303
REMARK  133  A    between atoms: _303  and  _304
REMARK  134  A    between atoms: _304  and  _305
REMARK  135  A    between atoms: _310  and  _312
REMARK  136  A    between atoms: _312  and  _313
REMARK  137  A    between atoms: _315  and  _317
REMARK  138  A    between atoms: _317  and  _318
REMARK  139  A    between atoms: _317  and  _320
REMARK  140  A    between atoms: _320  and  _321
REMARK  141  A    between atoms: _324  and  _326
REMARK  142  A    between atoms: _326  and  _327
REMARK  143  A    between atoms: _326  and  _329
REMARK  144  A    between atoms: _329  and  _330
REMARK  145  A    between atoms: _332  and  _334
REMARK  146  A    between atoms: _334  and  _335
REMARK  147  A    between atoms: _337  and  _339
REMARK  148  A    between atoms: _339  and  _340
REMARK  149  A    between atoms: _342  and  _344
REMARK  150  A    between atoms: _344  and  _345
REMARK  151  A    between atoms: _344  and  _347
REMARK  152  A    between atoms: _347  and  _348
REMARK  153  A    between atoms: _353  and  _355
REMARK  154  A    between atoms: _355  and  _356
REMARK  155  A    between atoms: _355  and  _358
REMARK  156  A    between atoms: _358  and  _359
REMARK  157  A    between atoms: _362  and  _364
REMARK  158  A    between atoms: _364  and  _365
REMARK  159  A    between atoms: _364  and  _367
REMARK  160  A    between atoms: _370  and  _372
REMARK  161  A    between atoms: _372  and  _373
REMARK  162  A    between atoms: _372  and  _375
REMARK  163  A    between atoms: _375  and  _376
REMARK  164  A    between atoms: _378  and  _380
REMARK  165  A    between atoms: _380  and  _381
REMARK  166  A    between atoms: _380  and  _383
REMARK  167  A    between atoms: _383  and  _384
REMARK  168  A    between atoms: _394  and  _396
REMARK  169  A    between atoms: _396  and  _397
REMARK  170  A    between atoms: _399  and  _401
REMARK  171  A    between atoms: _401  and  _402
REMARK  172  A    between atoms: _401  and  _404
REMARK  173  A    between atoms: _404  and  _405
REMARK  174  A    between atoms: _405  and  _406
REMARK  175  A    between atoms: _409  and  _411
REMARK  176  A    between atoms: _411  and  _412
REMARK  177  A    between atoms: _414  and  _416
REMARK  178  A    between atoms: _416  and  _417
REMARK  179  A    between atoms: _416  and  _419
REMARK  180  A    between atoms: _419  and  _420
REMARK  181  A    between atoms: _421  and  _423
REMARK  182  A    between atoms: _423  and  _424
REMARK  183  A    between atoms: _427  and  _429
REMARK  184  A    between atoms: _429  and  _430
REMARK  185  A    between atoms: _429  and  _432
REMARK  186  A    between atoms: _432  and  _433
REMARK  187  A    between atoms: _433  and  _434
REMARK  188  A    between atoms: _434  and  _435
REMARK  189  A    between atoms: _444  and  _446
REMARK  190  A    between atoms: _446  and  _447
REMARK  191  A    between atoms: _446  and  _449
REMARK  192  A    between atoms: _449  and  _450
REMARK  193  A    between atoms: _450  and  _451
REMARK  194  A    between atoms: _451  and  _452
REMARK  195  A    between atoms: _452  and  _453
REMARK  196  A    between atoms: _457  and  _459
REMARK  197  A    between atoms: _459  and  _460
REMARK  198  A    between atoms: _459  and  _462
REMARK  199  A    between atoms: _462  and  _463
REMARK  200  A    between atoms: _468  and  _469
REMARK  201  A    between atoms: _471  and  _473
REMARK  202  A    between atoms: _473  and  _474
REMARK  203  A    between atoms: _476  and  _478
REMARK  204  A    between atoms: _478  and  _479
REMARK  205  A    between atoms: _478  and  _481
REMARK  206  A    between atoms: _481  and  _482
REMARK  207  A    between atoms: _485  and  _487
REMARK  208  A    between atoms: _487  and  _488
REMARK  209  A    between atoms: _487  and  _490
REMARK  210  A    between atoms: _490  and  _491
REMARK  211  A    between atoms: _496  and  _497
REMARK  212  A    between atoms: _499  and  _501
REMARK  213  A    between atoms: _501  and  _502
REMARK  214  A    between atoms: _501  and  _504
REMARK  215  A    between atoms: _504  and  _505
REMARK                            x       y       z     vdW  Elec       q    Type
REMARK                         _______ _______ _______ _____ _____    ______ ____
ROOT
ATOM      1  O   HOH     1      -0.452   1.682  19.534  0.00  0.00    +0.000 OA
ENDROOT
TORSDOF 0
REMARK  Name = ../refined-set-2016/2vvv/2vvv_pocket.pdb
REMARK  215 active torsions:
REMARK  status: ('A' for Active; 'I' for Inactive)
REMARK    1  A    between atoms: _1  and  _5
REMARK    2  A    between atoms: _5  and  _6
REMARK    3  A    between atoms: _5  and  _8
REMARK    4  A    between atoms: _8  and  _9
REMARK    5  A    between atoms: _12  and  _14
REMARK    6  A    between atoms: _14  and  _15
REMARK    7  A    between atoms: _14  and  _17
REMARK    8  A    between atoms: _20  and  _22
REMARK    9  A    between atoms: _22  and  _23
REMARK   10  A    between atoms: _22  and  _25
REMARK   11  A    between atoms: _25  and  _26
REMARK   12  A    between atoms: _31  and  _33
REMARK   13  A    between atoms: _33  and  _34
REMARK   14  A    between atoms: _33  and  _36
REMARK   15  A    between atoms: _36  and  _37
REMARK   16  A    between atoms: _37  and  _38
REMARK   17  A    between atoms: _43  and  _45
REMARK   18  A    between atoms: _45  and  _46
REMARK   19  A    between atoms: _45  and  _48
REMARK   20  A    between atoms: _48  and  _49
REMARK   21  A    between atoms: _52  and  _54
REMARK   22  A    between atoms: _54  and  _55
REMARK   23  A    between atoms: _54  and  _57
REMARK   24  A    between atoms: _57  and  _58
REMARK   25  A    between atoms: _58  and  _59
REMARK   26  A    between atoms: _59  and  _60
REMARK   27  A    between atoms: _60  and  _61
REMARK   28  A    between atoms: _65  and  _67
REMARK   29  A    between atoms: _67  and  _68
REMARK   30  A    between atoms: _67  and  _70
REMARK   31  A    between atoms: _70  and  _71
REMARK   32  A    between atoms: _71  and  _72
REMARK   33  A    between atoms: _75  and  _77
REMARK   34  A    between atoms: _77  and  _78
REMARK   35  A    between atoms: _77  and  _80
REMARK   36  A    between atoms: _80  and  _81
REMARK   37  A    between atoms: _84  and  _86
REMARK   38  A    between atoms: _86  and  _87
REMARK   39  A    between atoms: _86  and  _89
REMARK   40  A    between atoms: _89  and  _90
REMARK   41  A    between atoms: _95  and  _96
REMARK   42  A    between atoms: _98  and  _100
REMARK   43  A    between atoms: _100  and  _101
REMARK   44  A    between atoms: _100  and  _103
REMARK   45  A    between atoms: _103  and  _104
REMARK   46  A    between atoms: _107  and  _109
REMARK   47  A    between atoms: _109  and  _110
REMARK   48  A    between atoms: _109  and  _112
REMARK   49  A    between atoms: _112  and  _113
REMARK   50  A    between atoms: _116  and  _118
REMARK   51  A    between atoms: _118  and  _119
REMARK   52  A    between atoms: _118  and  _121
REMARK   53  A    between atoms: _124  and  _126
REMARK   54  A    between atoms: _126  and  _127
REMARK   55  A    between atoms: _126  and  _129
REMARK   56  A    between atoms: _129  and  _130
REMARK   57  A    between atoms: _130  and  _131
REMARK   58  A    between atoms: _131  and  _132
REMARK   59  A    between atoms: _141  and  _143
REMARK   60  A    between atoms: _143  and  _144
REMARK   61  A    between atoms: _143  and  _146
REMARK   62  A    between atoms: _146  and  _147
REMARK   63  A    between atoms: _147  and  _148
REMARK   64  A    between atoms: _151  and  _153
REMARK   65  A    between atoms: _153  and  _154
REMARK   66  A    between atoms: _153  and  _156
REMARK   67  A    between atoms: _156  and  _157
REMARK   68  A    between atoms: _157  and  _158
REMARK   69  A    between atoms: _158  and  _159
REMARK   70  A    between atoms: _159  and  _160
REMARK   71  A    between atoms: _164  and  _166
REMARK   72  A    between atoms: _166  and  _167
REMARK   73  A    between atoms: _166  and  _169
REMARK   74  A    between atoms: _172  and  _174
REMARK   75  A    between atoms: _174  and  _175
REMARK   76  A    between atoms: _174  and  _177
REMARK   77  A    between atoms: _177  and  _178
REMARK   78  A    between atoms: _180  and  _182
REMARK   79  A    between atoms: _182  and  _183
REMARK   80  A    between atoms: _182  and  _185
REMARK   81  A    between atoms: _185  and  _186
REMARK   82  A    between atoms: _188  and  _190
REMARK   83  A    between atoms: _190  and  _191
REMARK   84  A    between atoms: _190  and  _193
REMARK   85  A    between atoms: _193  and  _194
REMARK   86  A    between atoms: _200  and  _202
REMARK   87  A    between atoms: _202  and  _203
REMARK   88  A    between atoms: _202  and  _205
REMARK   89  A    between atoms: _205  and  _206
REMARK   90  A    between atoms: _209  and  _211
REMARK   91  A    between atoms: _211  and  _212
REMARK   92  A    between atoms: _211  and  _214
REMARK   93  A    between atoms: _214  and  _215
REMARK   94  A    between atoms: _218  and  _220
REMARK   95  A    between atoms: _220  and  _221
REMARK   96  A    between atoms: _220  and  _223
REMARK   97  A    between atoms: _223  and  _224
REMARK   98  A    between atoms: _227  and  _229
REMARK   99  A    between atoms: _229  and  _230
REMARK  100  A    between atoms: _229  and  _232
REMARK  101  A    between atoms: _232  and  _233
REMARK  102  A    between atoms: _233  and  _234
REMARK  103  A    between atoms: _236  and  _238
REMARK  104  A    between atoms: _238  and  _239
REMARK  105  A    between atoms: _238  and  _241
REMARK  106  A    between atoms: _241  and  _242
REMARK  107  A    between atoms: _248  and  _250
REMARK  108  A    between atoms: _250  and  _251
REMARK  109  A    between atoms: _250  and  _253
REMARK  110  A    between atoms: _255  and  _257
REMARK  111  A    between atoms: _257  and  _258
REMARK  112  A    between atoms: _261  and  _263
REMARK  113  A    between atoms: _263  and  _264
REMARK  114  A    between atoms: _266  and  _268
REMARK  115  A    between atoms: _268  and  _269
REMARK  116  A    between atoms: _268  and  _271
REMARK  117  A    between atoms: _271  and  _272
REMARK  118  A    between atoms: _272  and  _273
REMARK  119  A    between atoms: _276  and  _278
REMARK  120  A    between atoms: _278  and  _279
REMARK  121  A    between atoms: _278  and  _281
REMARK  122  A    between atoms: _281  and  _282
REMARK  123  A    between atoms: _285  and  _287
REMARK  124  A    between atoms: _287  and  _288
REMARK  125  A    between atoms: _291  and  _293
REMARK  126  A    between atoms: _293  and  _294
REMARK  127  A    between atoms: _293  and  _296
REMARK  128  A    between atoms: _296  and  _297
REMARK  129  A    between atoms: _297  and  _420
REMARK  130  A    between atoms: _298  and  _300
REMARK  131  A    between atoms: _300  and  _301
REMARK  132  A    between atoms: _300  and  _303
REMARK  133  A    between atoms: _303  and  _304
REMARK  134  A    between atoms: _304  and  _305
REMARK  135  A    between atoms: _310  and  _312
REMARK  136  A    between atoms: _312  and  _313
REMARK  137  A    between atoms: _315  and  _317
REMARK  138  A    between atoms: _317  and  _318
REMARK  139  A    between atoms: _317  and  _320
REMARK  140  A    between atoms: _320  and  _321
REMARK  141  A    between atoms: _324  and  _326
REMARK  142  A    between atoms: _326  and  _327
REMARK  143  A    between atoms: _326  and  _329
REMARK  144  A    between atoms: _329  and  _330
REMARK  145  A    between atoms: _332  and  _334
REMARK  146  A    between atoms: _334  and  _335
REMARK  147  A    between atoms: _337  and  _339
REMARK  148  A    between atoms: _339  and  _340
REMARK  149  A    between atoms: _342  and  _344
REMARK  150  A    between atoms: _344  and  _345
REMARK  151  A    between atoms: _344  and  _347
REMARK  152  A    between atoms: _347  and  _348
REMARK  153  A    between atoms: _353  and  _355
REMARK  154  A    between atoms: _355  and  _356
REMARK  155  A    between atoms: _355  and  _358
REMARK  156  A    between atoms: _358  and  _359
REMARK  157  A    between atoms: _362  and  _364
REMARK  158  A    between atoms: _364  and  _365
REMARK  159  A    between atoms: _364  and  _367
REMARK  160  A    between atoms: _370  and  _372
REMARK  161  A    between atoms: _372  and  _373
REMARK  162  A    between atoms: _372  and  _375
REMARK  163  A    between atoms: _375  and  _376
REMARK  164  A    between atoms: _378  and  _380
REMARK  165  A    between atoms: _380  and  _381
REMARK  166  A    between atoms: _380  and  _383
REMARK  167  A    between atoms: _383  and  _384
REMARK  168  A    between atoms: _394  and  _396
REMARK  169  A    between atoms: _396  and  _397
REMARK  170  A    between atoms: _399  and  _401
REMARK  171  A    between atoms: _401  and  _402
REMARK  172  A    between atoms: _401  and  _404
REMARK  173  A    between atoms: _404  and  _405
REMARK  174  A    between atoms: _405  and  _406
REMARK  175  A    between atoms: _409  and  _411
REMARK  176  A    between atoms: _411  and  _412
REMARK  177  A    between atoms: _414  and  _416
REMARK  178  A    between atoms: _416  and  _417
REMARK  179  A    between atoms: _416  and  _419
REMARK  180  A    between atoms: _419  and  _420
REMARK  181  A    between atoms: _421  and  _423
REMARK  182  A    between atoms: _423  and  _424
REMARK  183  A    between atoms: _427  and  _429
REMARK  184  A    between atoms: _429  and  _430
REMARK  185  A    between atoms: _429  and  _432
REMARK  186  A    between atoms: _432  and  _433
REMARK  187  A    between atoms: _433  and  _434
REMARK  188  A    between atoms: _434  and  _435
REMARK  189  A    between atoms: _444  and  _446
REMARK  190  A    between atoms: _446  and  _447
REMARK  191  A    between atoms: _446  and  _449
REMARK  192  A    between atoms: _449  and  _450
REMARK  193  A    between atoms: _450  and  _451
REMARK  194  A    between atoms: _451  and  _452
REMARK  195  A    between atoms: _452  and  _453
REMARK  196  A    between atoms: _457  and  _459
REMARK  197  A    between atoms: _459  and  _460
REMARK  198  A    between atoms: _459  and  _462
REMARK  199  A    between atoms: _462  and  _463
REMARK  200  A    between atoms: _468  and  _469
REMARK  201  A    between atoms: _471  and  _473
REMARK  202  A    between atoms: _473  and  _474
REMARK  203  A    between atoms: _476  and  _478
REMARK  204  A    between atoms: _478  and  _479
REMARK  205  A    between atoms: _478  and  _481
REMARK  206  A    between atoms: _481  and  _482
REMARK  207  A    between atoms: _485  and  _487
REMARK  208  A    between atoms: _487  and  _488
REMARK  209  A    between atoms: _487  and  _490
REMARK  210  A    between atoms: _490  and  _491
REMARK  211  A    between atoms: _496  and  _497
REMARK  212  A    between atoms: _499  and  _501
REMARK  213  A    between atoms: _501  and  _502
REMARK  214  A    between atoms: _501  and  _504
REMARK  215  A    between atoms: _504  and  _505
REMARK                            x       y       z     vdW  Elec       q    Type
REMARK                         _______ _______ _______ _____ _____    ______ ____
ROOT
ATOM      1  O   HOH     1      -4.230  15.805  27.123  0.00  0.00    +0.000 OA
ENDROOT
TORSDOF 0
REMARK  Name = ../refined-set-2016/2vvv/2vvv_pocket.pdb
REMARK  215 active torsions:
REMARK  status: ('A' for Active; 'I' for Inactive)
REMARK    1  A    between atoms: _1  and  _5
REMARK    2  A    between atoms: _5  and  _6
REMARK    3  A    between atoms: _5  and  _8
REMARK    4  A    between atoms: _8  and  _9
REMARK    5  A    between atoms: _12  and  _14
REMARK    6  A    between atoms: _14  and  _15
REMARK    7  A    between atoms: _14  and  _17
REMARK    8  A    between atoms: _20  and  _22
REMARK    9  A    between atoms: _22  and  _23
REMARK   10  A    between atoms: _22  and  _25
REMARK   11  A    between atoms: _25  and  _26
REMARK   12  A    between atoms: _31  and  _33
REMARK   13  A    between atoms: _33  and  _34
REMARK   14  A    between atoms: _33  and  _36
REMARK   15  A    between atoms: _36  and  _37
REMARK   16  A    between atoms: _37  and  _38
REMARK   17  A    between atoms: _43  and  _45
REMARK   18  A    between atoms: _45  and  _46
REMARK   19  A    between atoms: _45  and  _48
REMARK   20  A    between atoms: _48  and  _49
REMARK   21  A    between atoms: _52  and  _54
REMARK   22  A    between atoms: _54  and  _55
REMARK   23  A    between atoms: _54  and  _57
REMARK   24  A    between atoms: _57  and  _58
REMARK   25  A    between atoms: _58  and  _59
REMARK   26  A    between atoms: _59  and  _60
REMARK   27  A    between atoms: _60  and  _61
REMARK   28  A    between atoms: _65  and  _67
REMARK   29  A    between atoms: _67  and  _68
REMARK   30  A    between atoms: _67  and  _70
REMARK   31  A    between atoms: _70  and  _71
REMARK   32  A    between atoms: _71  and  _72
REMARK   33  A    between atoms: _75  and  _77
REMARK   34  A    between atoms: _77  and  _78
REMARK   35  A    between atoms: _77  and  _80
REMARK   36  A    between atoms: _80  and  _81
REMARK   37  A    between atoms: _84  and  _86
REMARK   38  A    between atoms: _86  and  _87
REMARK   39  A    between atoms: _86  and  _89
REMARK   40  A    between atoms: _89  and  _90
REMARK   41  A    between atoms: _95  and  _96
REMARK   42  A    between atoms: _98  and  _100
REMARK   43  A    between atoms: _100  and  _101
REMARK   44  A    between atoms: _100  and  _103
REMARK   45  A    between atoms: _103  and  _104
REMARK   46  A    between atoms: _107  and  _109
REMARK   47  A    between atoms: _109  and  _110
REMARK   48  A    between atoms: _109  and  _112
REMARK   49  A    between atoms: _112  and  _113
REMARK   50  A    between atoms: _116  and  _118
REMARK   51  A    between atoms: _118  and  _119
REMARK   52  A    between atoms: _118  and  _121
REMARK   53  A    between atoms: _124  and  _126
REMARK   54  A    between atoms: _126  and  _127
REMARK   55  A    between atoms: _126  and  _129
REMARK   56  A    between atoms: _129  and  _130
REMARK   57  A    between atoms: _130  and  _131
REMARK   58  A    between atoms: _131  and  _132
REMARK   59  A    between atoms: _141  and  _143
REMARK   60  A    between atoms: _143  and  _144
REMARK   61  A    between atoms: _143  and  _146
REMARK   62  A    between atoms: _146  and  _147
REMARK   63  A    between atoms: _147  and  _148
REMARK   64  A    between atoms: _151  and  _153
REMARK   65  A    between atoms: _153  and  _154
REMARK   66  A    between atoms: _153  and  _156
REMARK   67  A    between atoms: _156  and  _157
REMARK   68  A    between atoms: _157  and  _158
REMARK   69  A    between atoms: _158  and  _159
REMARK   70  A    between atoms: _159  and  _160
REMARK   71  A    between atoms: _164  and  _166
REMARK   72  A    between atoms: _166  and  _167
REMARK   73  A    between atoms: _166  and  _169
REMARK   74  A    between atoms: _172  and  _174
REMARK   75  A    between atoms: _174  and  _175
REMARK   76  A    between atoms: _174  and  _177
REMARK   77  A    between atoms: _177  and  _178
REMARK   78  A    between atoms: _180  and  _182
REMARK   79  A    between atoms: _182  and  _183
REMARK   80  A    between atoms: _182  and  _185
REMARK   81  A    between atoms: _185  and  _186
REMARK   82  A    between atoms: _188  and  _190
REMARK   83  A    between atoms: _190  and  _191
REMARK   84  A    between atoms: _190  and  _193
REMARK   85  A    between atoms: _193  and  _194
REMARK   86  A    between atoms: _200  and  _202
REMARK   87  A    between atoms: _202  and  _203
REMARK   88  A    between atoms: _202  and  _205
REMARK   89  A    between atoms: _205  and  _206
REMARK   90  A    between atoms: _209  and  _211
REMARK   91  A    between atoms: _211  and  _212
REMARK   92  A    between atoms: _211  and  _214
REMARK   93  A    between atoms: _214  and  _215
REMARK   94  A    between atoms: _218  and  _220
REMARK   95  A    between atoms: _220  and  _221
REMARK   96  A    between atoms: _220  and  _223
REMARK   97  A    between atoms: _223  and  _224
REMARK   98  A    between atoms: _227  and  _229
REMARK   99  A    between atoms: _229  and  _230
REMARK  100  A    between atoms: _229  and  _232
REMARK  101  A    between atoms: _232  and  _233
REMARK  102  A    between atoms: _233  and  _234
REMARK  103  A    between atoms: _236  and  _238
REMARK  104  A    between atoms: _238  and  _239
REMARK  105  A    between atoms: _238  and  _241
REMARK  106  A    between atoms: _241  and  _242
REMARK  107  A    between atoms: _248  and  _250
REMARK  108  A    between atoms: _250  and  _251
REMARK  109  A    between atoms: _250  and  _253
REMARK  110  A    between atoms: _255  and  _257
REMARK  111  A    between atoms: _257  and  _258
REMARK  112  A    between atoms: _261  and  _263
REMARK  113  A    between atoms: _263  and  _264
REMARK  114  A    between atoms: _266  and  _268
REMARK  115  A    between atoms: _268  and  _269
REMARK  116  A    between atoms: _268  and  _271
REMARK  117  A    between atoms: _271  and  _272
REMARK  118  A    between atoms: _272  and  _273
REMARK  119  A    between atoms: _276  and  _278
REMARK  120  A    between atoms: _278  and  _279
REMARK  121  A    between atoms: _278  and  _281
REMARK  122  A    between atoms: _281  and  _282
REMARK  123  A    between atoms: _285  and  _287
REMARK  124  A    between atoms: _287  and  _288
REMARK  125  A    between atoms: _291  and  _293
REMARK  126  A    between atoms: _293  and  _294
REMARK  127  A    between atoms: _293  and  _296
REMARK  128  A    between atoms: _296  and  _297
REMARK  129  A    between atoms: _297  and  _420
REMARK  130  A    between atoms: _298  and  _300
REMARK  131  A    between atoms: _300  and  _301
REMARK  132  A    between atoms: _300  and  _303
REMARK  133  A    between atoms: _303  and  _304
REMARK  134  A    between atoms: _304  and  _305
REMARK  135  A    between atoms: _310  and  _312
REMARK  136  A    between atoms: _312  and  _313
REMARK  137  A    between atoms: _315  and  _317
REMARK  138  A    between atoms: _317  and  _318
REMARK  139  A    between atoms: _317  and  _320
REMARK  140  A    between atoms: _320  and  _321
REMARK  141  A    between atoms: _324  and  _326
REMARK  142  A    between atoms: _326  and  _327
REMARK  143  A    between atoms: _326  and  _329
REMARK  144  A    between atoms: _329  and  _330
REMARK  145  A    between atoms: _332  and  _334
REMARK  146  A    between atoms: _334  and  _335
REMARK  147  A    between atoms: _337  and  _339
REMARK  148  A    between atoms: _339  and  _340
REMARK  149  A    between atoms: _342  and  _344
REMARK  150  A    between atoms: _344  and  _345
REMARK  151  A    between atoms: _344  and  _347
REMARK  152  A    between atoms: _347  and  _348
REMARK  153  A    between atoms: _353  and  _355
REMARK  154  A    between atoms: _355  and  _356
REMARK  155  A    between atoms: _355  and  _358
REMARK  156  A    between atoms: _358  and  _359
REMARK  157  A    between atoms: _362  and  _364
REMARK  158  A    between atoms: _364  and  _365
REMARK  159  A    between atoms: _364  and  _367
REMARK  160  A    between atoms: _370  and  _372
REMARK  161  A    between atoms: _372  and  _373
REMARK  162  A    between atoms: _372  and  _375
REMARK  163  A    between atoms: _375  and  _376
REMARK  164  A    between atoms: _378  and  _380
REMARK  165  A    between atoms: _380  and  _381
REMARK  166  A    between atoms: _380  and  _383
REMARK  167  A    between atoms: _383  and  _384
REMARK  168  A    between atoms: _394  and  _396
REMARK  169  A    between atoms: _396  and  _397
REMARK  170  A    between atoms: _399  and  _401
REMARK  171  A    between atoms: _401  and  _402
REMARK  172  A    between atoms: _401  and  _404
REMARK  173  A    between atoms: _404  and  _405
REMARK  174  A    between atoms: _405  and  _406
REMARK  175  A    between atoms: _409  and  _411
REMARK  176  A    between atoms: _411  and  _412
REMARK  177  A    between atoms: _414  and  _416
REMARK  178  A    between atoms: _416  and  _417
REMARK  179  A    between atoms: _416  and  _419
REMARK  180  A    between atoms: _419  and  _420
REMARK  181  A    between atoms: _421  and  _423
REMARK  182  A    between atoms: _423  and  _424
REMARK  183  A    between atoms: _427  and  _429
REMARK  184  A    between atoms: _429  and  _430
REMARK  185  A    between atoms: _429  and  _432
REMARK  186  A    between atoms: _432  and  _433
REMARK  187  A    between atoms: _433  and  _434
REMARK  188  A    between atoms: _434  and  _435
REMARK  189  A    between atoms: _444  and  _446
REMARK  190  A    between atoms: _446  and  _447
REMARK  191  A    between atoms: _446  and  _449
REMARK  192  A    between atoms: _449  and  _450
REMARK  193  A    between atoms: _450  and  _451
REMARK  194  A    between atoms: _451  and  _452
REMARK  195  A    between atoms: _452  and  _453
REMARK  196  A    between atoms: _457  and  _459
REMARK  197  A    between atoms: _459  and  _460
REMARK  198  A    between atoms: _459  and  _462
REMARK  199  A    between atoms: _462  and  _463
REMARK  200  A    between atoms: _468  and  _469
REMARK  201  A    between atoms: _471  and  _473
REMARK  202  A    between atoms: _473  and  _474
REMARK  203  A    between atoms: _476  and  _478
REMARK  204  A    between atoms: _478  and  _479
REMARK  205  A    between atoms: _478  and  _481
REMARK  206  A    between atoms: _481  and  _482
REMARK  207  A    between atoms: _485  and  _487
REMARK  208  A    between atoms: _487  and  _488
REMARK  209  A    between atoms: _487  and  _490
REMARK  210  A    between atoms: _490  and  _491
REMARK  211  A    between atoms: _496  and  _497
REMARK  212  A    between atoms: _499  and  _501
REMARK  213  A    between atoms: _501  and  _502
REMARK  214  A    between atoms: _501  and  _504
REMARK  215  A    between atoms: _504  and  _505
REMARK                            x       y       z     vdW  Elec       q    Type
REMARK                         _______ _______ _______ _____ _____    ______ ____
ROOT
ATOM      1  O   HOH     1     -14.039   5.877  18.449  0.00  0.00    +0.000 OA
ENDROOT
TORSDOF 0
REMARK  Name = ../refined-set-2016/2vvv/2vvv_pocket.pdb
REMARK  215 active torsions:
REMARK  status: ('A' for Active; 'I' for Inactive)
REMARK    1  A    between atoms: _1  and  _5
REMARK    2  A    between atoms: _5  and  _6
REMARK    3  A    between atoms: _5  and  _8
REMARK    4  A    between atoms: _8  and  _9
REMARK    5  A    between atoms: _12  and  _14
REMARK    6  A    between atoms: _14  and  _15
REMARK    7  A    between atoms: _14  and  _17
REMARK    8  A    between atoms: _20  and  _22
REMARK    9  A    between atoms: _22  and  _23
REMARK   10  A    between atoms: _22  and  _25
REMARK   11  A    between atoms: _25  and  _26
REMARK   12  A    between atoms: _31  and  _33
REMARK   13  A    between atoms: _33  and  _34
REMARK   14  A    between atoms: _33  and  _36
REMARK   15  A    between atoms: _36  and  _37
REMARK   16  A    between atoms: _37  and  _38
REMARK   17  A    between atoms: _43  and  _45
REMARK   18  A    between atoms: _45  and  _46
REMARK   19  A    between atoms: _45  and  _48
REMARK   20  A    between atoms: _48  and  _49
REMARK   21  A    between atoms: _52  and  _54
REMARK   22  A    between atoms: _54  and  _55
REMARK   23  A    between atoms: _54  and  _57
REMARK   24  A    between atoms: _57  and  _58
REMARK   25  A    between atoms: _58  and  _59
REMARK   26  A    between atoms: _59  and  _60
REMARK   27  A    between atoms: _60  and  _61
REMARK   28  A    between atoms: _65  and  _67
REMARK   29  A    between atoms: _67  and  _68
REMARK   30  A    between atoms: _67  and  _70
REMARK   31  A    between atoms: _70  and  _71
REMARK   32  A    between atoms: _71  and  _72
REMARK   33  A    between atoms: _75  and  _77
REMARK   34  A    between atoms: _77  and  _78
REMARK   35  A    between atoms: _77  and  _80
REMARK   36  A    between atoms: _80  and  _81
REMARK   37  A    between atoms: _84  and  _86
REMARK   38  A    between atoms: _86  and  _87
REMARK   39  A    between atoms: _86  and  _89
REMARK   40  A    between atoms: _89  and  _90
REMARK   41  A    between atoms: _95  and  _96
REMARK   42  A    between atoms: _98  and  _100
REMARK   43  A    between atoms: _100  and  _101
REMARK   44  A    between atoms: _100  and  _103
REMARK   45  A    between atoms: _103  and  _104
REMARK   46  A    between atoms: _107  and  _109
REMARK   47  A    between atoms: _109  and  _110
REMARK   48  A    between atoms: _109  and  _112
REMARK   49  A    between atoms: _112  and  _113
REMARK   50  A    between atoms: _116  and  _118
REMARK   51  A    between atoms: _118  and  _119
REMARK   52  A    between atoms: _118  and  _121
REMARK   53  A    between atoms: _124  and  _126
REMARK   54  A    between atoms: _126  and  _127
REMARK   55  A    between atoms: _126  and  _129
REMARK   56  A    between atoms: _129  and  _130
REMARK   57  A    between atoms: _130  and  _131
REMARK   58  A    between atoms: _131  and  _132
REMARK   59  A    between atoms: _141  and  _143
REMARK   60  A    between atoms: _143  and  _144
REMARK   61  A    between atoms: _143  and  _146
REMARK   62  A    between atoms: _146  and  _147
REMARK   63  A    between atoms: _147  and  _148
REMARK   64  A    between atoms: _151  and  _153
REMARK   65  A    between atoms: _153  and  _154
REMARK   66  A    between atoms: _153  and  _156
REMARK   67  A    between atoms: _156  and  _157
REMARK   68  A    between atoms: _157  and  _158
REMARK   69  A    between atoms: _158  and  _159
REMARK   70  A    between atoms: _159  and  _160
REMARK   71  A    between atoms: _164  and  _166
REMARK   72  A    between atoms: _166  and  _167
REMARK   73  A    between atoms: _166  and  _169
REMARK   74  A    between atoms: _172  and  _174
REMARK   75  A    between atoms: _174  and  _175
REMARK   76  A    between atoms: _174  and  _177
REMARK   77  A    between atoms: _177  and  _178
REMARK   78  A    between atoms: _180  and  _182
REMARK   79  A    between atoms: _182  and  _183
REMARK   80  A    between atoms: _182  and  _185
REMARK   81  A    between atoms: _185  and  _186
REMARK   82  A    between atoms: _188  and  _190
REMARK   83  A    between atoms: _190  and  _191
REMARK   84  A    between atoms: _190  and  _193
REMARK   85  A    between atoms: _193  and  _194
REMARK   86  A    between atoms: _200  and  _202
REMARK   87  A    between atoms: _202  and  _203
REMARK   88  A    between atoms: _202  and  _205
REMARK   89  A    between atoms: _205  and  _206
REMARK   90  A    between atoms: _209  and  _211
REMARK   91  A    between atoms: _211  and  _212
REMARK   92  A    between atoms: _211  and  _214
REMARK   93  A    between atoms: _214  and  _215
REMARK   94  A    between atoms: _218  and  _220
REMARK   95  A    between atoms: _220  and  _221
REMARK   96  A    between atoms: _220  and  _223
REMARK   97  A    between atoms: _223  and  _224
REMARK   98  A    between atoms: _227  and  _229
REMARK   99  A    between atoms: _229  and  _230
REMARK  100  A    between atoms: _229  and  _232
REMARK  101  A    between atoms: _232  and  _233
REMARK  102  A    between atoms: _233  and  _234
REMARK  103  A    between atoms: _236  and  _238
REMARK  104  A    between atoms: _238  and  _239
REMARK  105  A    between atoms: _238  and  _241
REMARK  106  A    between atoms: _241  and  _242
REMARK  107  A    between atoms: _248  and  _250
REMARK  108  A    between atoms: _250  and  _251
REMARK  109  A    between atoms: _250  and  _253
REMARK  110  A    between atoms: _255  and  _257
REMARK  111  A    between atoms: _257  and  _258
REMARK  112  A    between atoms: _261  and  _263
REMARK  113  A    between atoms: _263  and  _264
REMARK  114  A    between atoms: _266  and  _268
REMARK  115  A    between atoms: _268  and  _269
REMARK  116  A    between atoms: _268  and  _271
REMARK  117  A    between atoms: _271  and  _272
REMARK  118  A    between atoms: _272  and  _273
REMARK  119  A    between atoms: _276  and  _278
REMARK  120  A    between atoms: _278  and  _279
REMARK  121  A    between atoms: _278  and  _281
REMARK  122  A    between atoms: _281  and  _282
REMARK  123  A    between atoms: _285  and  _287
REMARK  124  A    between atoms: _287  and  _288
REMARK  125  A    between atoms: _291  and  _293
REMARK  126  A    between atoms: _293  and  _294
REMARK  127  A    between atoms: _293  and  _296
REMARK  128  A    between atoms: _296  and  _297
REMARK  129  A    between atoms: _297  and  _420
REMARK  130  A    between atoms: _298  and  _300
REMARK  131  A    between atoms: _300  and  _301
REMARK  132  A    between atoms: _300  and  _303
REMARK  133  A    between atoms: _303  and  _304
REMARK  134  A    between atoms: _304  and  _305
REMARK  135  A    between atoms: _310  and  _312
REMARK  136  A    between atoms: _312  and  _313
REMARK  137  A    between atoms: _315  and  _317
REMARK  138  A    between atoms: _317  and  _318
REMARK  139  A    between atoms: _317  and  _320
REMARK  140  A    between atoms: _320  and  _321
REMARK  141  A    between atoms: _324  and  _326
REMARK  142  A    between atoms: _326  and  _327
REMARK  143  A    between atoms: _326  and  _329
REMARK  144  A    between atoms: _329  and  _330
REMARK  145  A    between atoms: _332  and  _334
REMARK  146  A    between atoms: _334  and  _335
REMARK  147  A    between atoms: _337  and  _339
REMARK  148  A    between atoms: _339  and  _340
REMARK  149  A    between atoms: _342  and  _344
REMARK  150  A    between atoms: _344  and  _345
REMARK  151  A    between atoms: _344  and  _347
REMARK  152  A    between atoms: _347  and  _348
REMARK  153  A    between atoms: _353  and  _355
REMARK  154  A    between atoms: _355  and  _356
REMARK  155  A    between atoms: _355  and  _358
REMARK  156  A    between atoms: _358  and  _359
REMARK  157  A    between atoms: _362  and  _364
REMARK  158  A    between atoms: _364  and  _365
REMARK  159  A    between atoms: _364  and  _367
REMARK  160  A    between atoms: _370  and  _372
REMARK  161  A    between atoms: _372  and  _373
REMARK  162  A    between atoms: _372  and  _375
REMARK  163  A    between atoms: _375  and  _376
REMARK  164  A    between atoms: _378  and  _380
REMARK  165  A    between atoms: _380  and  _381
REMARK  166  A    between atoms: _380  and  _383
REMARK  167  A    between atoms: _383  and  _384
REMARK  168  A    between atoms: _394  and  _396
REMARK  169  A    between atoms: _396  and  _397
REMARK  170  A    between atoms: _399  and  _401
REMARK  171  A    between atoms: _401  and  _402
REMARK  172  A    between atoms: _401  and  _404
REMARK  173  A    between atoms: _404  and  _405
REMARK  174  A    between atoms: _405  and  _406
REMARK  175  A    between atoms: _409  and  _411
REMARK  176  A    between atoms: _411  and  _412
REMARK  177  A    between atoms: _414  and  _416
REMARK  178  A    between atoms: _416  and  _417
REMARK  179  A    between atoms: _416  and  _419
REMARK  180  A    between atoms: _419  and  _420
REMARK  181  A    between atoms: _421  and  _423
REMARK  182  A    between atoms: _423  and  _424
REMARK  183  A    between atoms: _427  and  _429
REMARK  184  A    between atoms: _429  and  _430
REMARK  185  A    between atoms: _429  and  _432
REMARK  186  A    between atoms: _432  and  _433
REMARK  187  A    between atoms: _433  and  _434
REMARK  188  A    between atoms: _434  and  _435
REMARK  189  A    between atoms: _444  and  _446
REMARK  190  A    between atoms: _446  and  _447
REMARK  191  A    between atoms: _446  and  _449
REMARK  192  A    between atoms: _449  and  _450
REMARK  193  A    between atoms: _450  and  _451
REMARK  194  A    between atoms: _451  and  _452
REMARK  195  A    between atoms: _452  and  _453
REMARK  196  A    between atoms: _457  and  _459
REMARK  197  A    between atoms: _459  and  _460
REMARK  198  A    between atoms: _459  and  _462
REMARK  199  A    between atoms: _462  and  _463
REMARK  200  A    between atoms: _468  and  _469
REMARK  201  A    between atoms: _471  and  _473
REMARK  202  A    between atoms: _473  and  _474
REMARK  203  A    between atoms: _476  and  _478
REMARK  204  A    between atoms: _478  and  _479
REMARK  205  A    between atoms: _478  and  _481
REMARK  206  A    between atoms: _481  and  _482
REMARK  207  A    between atoms: _485  and  _487
REMARK  208  A    between atoms: _487  and  _488
REMARK  209  A    between atoms: _487  and  _490
REMARK  210  A    between atoms: _490  and  _491
REMARK  211  A    between atoms: _496  and  _497
REMARK  212  A    between atoms: _499  and  _501
REMARK  213  A    between atoms: _501  and  _502
REMARK  214  A    between atoms: _501  and  _504
REMARK  215  A    between atoms: _504  and  _505
REMARK                            x       y       z     vdW  Elec       q    Type
REMARK                         _______ _______ _______ _____ _____    ______ ____
ROOT
ATOM      1  O   HOH     1     -10.737   1.985  16.001  0.00  0.00    +0.000 OA
ENDROOT
TORSDOF 0
REMARK  Name = ../refined-set-2016/2vvv/2vvv_pocket.pdb
REMARK  215 active torsions:
REMARK  status: ('A' for Active; 'I' for Inactive)
REMARK    1  A    between atoms: _1  and  _5
REMARK    2  A    between atoms: _5  and  _6
REMARK    3  A    between atoms: _5  and  _8
REMARK    4  A    between atoms: _8  and  _9
REMARK    5  A    between atoms: _12  and  _14
REMARK    6  A    between atoms: _14  and  _15
REMARK    7  A    between atoms: _14  and  _17
REMARK    8  A    between atoms: _20  and  _22
REMARK    9  A    between atoms: _22  and  _23
REMARK   10  A    between atoms: _22  and  _25
REMARK   11  A    between atoms: _25  and  _26
REMARK   12  A    between atoms: _31  and  _33
REMARK   13  A    between atoms: _33  and  _34
REMARK   14  A    between atoms: _33  and  _36
REMARK   15  A    between atoms: _36  and  _37
REMARK   16  A    between atoms: _37  and  _38
REMARK   17  A    between atoms: _43  and  _45
REMARK   18  A    between atoms: _45  and  _46
REMARK   19  A    between atoms: _45  and  _48
REMARK   20  A    between atoms: _48  and  _49
REMARK   21  A    between atoms: _52  and  _54
REMARK   22  A    between atoms: _54  and  _55
REMARK   23  A    between atoms: _54  and  _57
REMARK   24  A    between atoms: _57  and  _58
REMARK   25  A    between atoms: _58  and  _59
REMARK   26  A    between atoms: _59  and  _60
REMARK   27  A    between atoms: _60  and  _61
REMARK   28  A    between atoms: _65  and  _67
REMARK   29  A    between atoms: _67  and  _68
REMARK   30  A    between atoms: _67  and  _70
REMARK   31  A    between atoms: _70  and  _71
REMARK   32  A    between atoms: _71  and  _72
REMARK   33  A    between atoms: _75  and  _77
REMARK   34  A    between atoms: _77  and  _78
REMARK   35  A    between atoms: _77  and  _80
REMARK   36  A    between atoms: _80  and  _81
REMARK   37  A    between atoms: _84  and  _86
REMARK   38  A    between atoms: _86  and  _87
REMARK   39  A    between atoms: _86  and  _89
REMARK   40  A    between atoms: _89  and  _90
REMARK   41  A    between atoms: _95  and  _96
REMARK   42  A    between atoms: _98  and  _100
REMARK   43  A    between atoms: _100  and  _101
REMARK   44  A    between atoms: _100  and  _103
REMARK   45  A    between atoms: _103  and  _104
REMARK   46  A    between atoms: _107  and  _109
REMARK   47  A    between atoms: _109  and  _110
REMARK   48  A    between atoms: _109  and  _112
REMARK   49  A    between atoms: _112  and  _113
REMARK   50  A    between atoms: _116  and  _118
REMARK   51  A    between atoms: _118  and  _119
REMARK   52  A    between atoms: _118  and  _121
REMARK   53  A    between atoms: _124  and  _126
REMARK   54  A    between atoms: _126  and  _127
REMARK   55  A    between atoms: _126  and  _129
REMARK   56  A    between atoms: _129  and  _130
REMARK   57  A    between atoms: _130  and  _131
REMARK   58  A    between atoms: _131  and  _132
REMARK   59  A    between atoms: _141  and  _143
REMARK   60  A    between atoms: _143  and  _144
REMARK   61  A    between atoms: _143  and  _146
REMARK   62  A    between atoms: _146  and  _147
REMARK   63  A    between atoms: _147  and  _148
REMARK   64  A    between atoms: _151  and  _153
REMARK   65  A    between atoms: _153  and  _154
REMARK   66  A    between atoms: _153  and  _156
REMARK   67  A    between atoms: _156  and  _157
REMARK   68  A    between atoms: _157  and  _158
REMARK   69  A    between atoms: _158  and  _159
REMARK   70  A    between atoms: _159  and  _160
REMARK   71  A    between atoms: _164  and  _166
REMARK   72  A    between atoms: _166  and  _167
REMARK   73  A    between atoms: _166  and  _169
REMARK   74  A    between atoms: _172  and  _174
REMARK   75  A    between atoms: _174  and  _175
REMARK   76  A    between atoms: _174  and  _177
REMARK   77  A    between atoms: _177  and  _178
REMARK   78  A    between atoms: _180  and  _182
REMARK   79  A    between atoms: _182  and  _183
REMARK   80  A    between atoms: _182  and  _185
REMARK   81  A    between atoms: _185  and  _186
REMARK   82  A    between atoms: _188  and  _190
REMARK   83  A    between atoms: _190  and  _191
REMARK   84  A    between atoms: _190  and  _193
REMARK   85  A    between atoms: _193  and  _194
REMARK   86  A    between atoms: _200  and  _202
REMARK   87  A    between atoms: _202  and  _203
REMARK   88  A    between atoms: _202  and  _205
REMARK   89  A    between atoms: _205  and  _206
REMARK   90  A    between atoms: _209  and  _211
REMARK   91  A    between atoms: _211  and  _212
REMARK   92  A    between atoms: _211  and  _214
REMARK   93  A    between atoms: _214  and  _215
REMARK   94  A    between atoms: _218  and  _220
REMARK   95  A    between atoms: _220  and  _221
REMARK   96  A    between atoms: _220  and  _223
REMARK   97  A    between atoms: _223  and  _224
REMARK   98  A    between atoms: _227  and  _229
REMARK   99  A    between atoms: _229  and  _230
REMARK  100  A    between atoms: _229  and  _232
REMARK  101  A    between atoms: _232  and  _233
REMARK  102  A    between atoms: _233  and  _234
REMARK  103  A    between atoms: _236  and  _238
REMARK  104  A    between atoms: _238  and  _239
REMARK  105  A    between atoms: _238  and  _241
REMARK  106  A    between atoms: _241  and  _242
REMARK  107  A    between atoms: _248  and  _250
REMARK  108  A    between atoms: _250  and  _251
REMARK  109  A    between atoms: _250  and  _253
REMARK  110  A    between atoms: _255  and  _257
REMARK  111  A    between atoms: _257  and  _258
REMARK  112  A    between atoms: _261  and  _263
REMARK  113  A    between atoms: _263  and  _264
REMARK  114  A    between atoms: _266  and  _268
REMARK  115  A    between atoms: _268  and  _269
REMARK  116  A    between atoms: _268  and  _271
REMARK  117  A    between atoms: _271  and  _272
REMARK  118  A    between atoms: _272  and  _273
REMARK  119  A    between atoms: _276  and  _278
REMARK  120  A    between atoms: _278  and  _279
REMARK  121  A    between atoms: _278  and  _281
REMARK  122  A    between atoms: _281  and  _282
REMARK  123  A    between atoms: _285  and  _287
REMARK  124  A    between atoms: _287  and  _288
REMARK  125  A    between atoms: _291  and  _293
REMARK  126  A    between atoms: _293  and  _294
REMARK  127  A    between atoms: _293  and  _296
REMARK  128  A    between atoms: _296  and  _297
REMARK  129  A    between atoms: _297  and  _420
REMARK  130  A    between atoms: _298  and  _300
REMARK  131  A    between atoms: _300  and  _301
REMARK  132  A    between atoms: _300  and  _303
REMARK  133  A    between atoms: _303  and  _304
REMARK  134  A    between atoms: _304  and  _305
REMARK  135  A    between atoms: _310  and  _312
REMARK  136  A    between atoms: _312  and  _313
REMARK  137  A    between atoms: _315  and  _317
REMARK  138  A    between atoms: _317  and  _318
REMARK  139  A    between atoms: _317  and  _320
REMARK  140  A    between atoms: _320  and  _321
REMARK  141  A    between atoms: _324  and  _326
REMARK  142  A    between atoms: _326  and  _327
REMARK  143  A    between atoms: _326  and  _329
REMARK  144  A    between atoms: _329  and  _330
REMARK  145  A    between atoms: _332  and  _334
REMARK  146  A    between atoms: _334  and  _335
REMARK  147  A    between atoms: _337  and  _339
REMARK  148  A    between atoms: _339  and  _340
REMARK  149  A    between atoms: _342  and  _344
REMARK  150  A    between atoms: _344  and  _345
REMARK  151  A    between atoms: _344  and  _347
REMARK  152  A    between atoms: _347  and  _348
REMARK  153  A    between atoms: _353  and  _355
REMARK  154  A    between atoms: _355  and  _356
REMARK  155  A    between atoms: _355  and  _358
REMARK  156  A    between atoms: _358  and  _359
REMARK  157  A    between atoms: _362  and  _364
REMARK  158  A    between atoms: _364  and  _365
REMARK  159  A    between atoms: _364  and  _367
REMARK  160  A    between atoms: _370  and  _372
REMARK  161  A    between atoms: _372  and  _373
REMARK  162  A    between atoms: _372  and  _375
REMARK  163  A    between atoms: _375  and  _376
REMARK  164  A    between atoms: _378  and  _380
REMARK  165  A    between atoms: _380  and  _381
REMARK  166  A    between atoms: _380  and  _383
REMARK  167  A    between atoms: _383  and  _384
REMARK  168  A    between atoms: _394  and  _396
REMARK  169  A    between atoms: _396  and  _397
REMARK  170  A    between atoms: _399  and  _401
REMARK  171  A    between atoms: _401  and  _402
REMARK  172  A    between atoms: _401  and  _404
REMARK  173  A    between atoms: _404  and  _405
REMARK  174  A    between atoms: _405  and  _406
REMARK  175  A    between atoms: _409  and  _411
REMARK  176  A    between atoms: _411  and  _412
REMARK  177  A    between atoms: _414  and  _416
REMARK  178  A    between atoms: _416  and  _417
REMARK  179  A    between atoms: _416  and  _419
REMARK  180  A    between atoms: _419  and  _420
REMARK  181  A    between atoms: _421  and  _423
REMARK  182  A    between atoms: _423  and  _424
REMARK  183  A    between atoms: _427  and  _429
REMARK  184  A    between atoms: _429  and  _430
REMARK  185  A    between atoms: _429  and  _432
REMARK  186  A    between atoms: _432  and  _433
REMARK  187  A    between atoms: _433  and  _434
REMARK  188  A    between atoms: _434  and  _435
REMARK  189  A    between atoms: _444  and  _446
REMARK  190  A    between atoms: _446  and  _447
REMARK  191  A    between atoms: _446  and  _449
REMARK  192  A    between atoms: _449  and  _450
REMARK  193  A    between atoms: _450  and  _451
REMARK  194  A    between atoms: _451  and  _452
REMARK  195  A    between atoms: _452  and  _453
REMARK  196  A    between atoms: _457  and  _459
REMARK  197  A    between atoms: _459  and  _460
REMARK  198  A    between atoms: _459  and  _462
REMARK  199  A    between atoms: _462  and  _463
REMARK  200  A    between atoms: _468  and  _469
REMARK  201  A    between atoms: _471  and  _473
REMARK  202  A    between atoms: _473  and  _474
REMARK  203  A    between atoms: _476  and  _478
REMARK  204  A    between atoms: _478  and  _479
REMARK  205  A    between atoms: _478  and  _481
REMARK  206  A    between atoms: _481  and  _482
REMARK  207  A    between atoms: _485  and  _487
REMARK  208  A    between atoms: _487  and  _488
REMARK  209  A    between atoms: _487  and  _490
REMARK  210  A    between atoms: _490  and  _491
REMARK  211  A    between atoms: _496  and  _497
REMARK  212  A    between atoms: _499  and  _501
REMARK  213  A    between atoms: _501  and  _502
REMARK  214  A    between atoms: _501  and  _504
REMARK  215  A    between atoms: _504  and  _505
REMARK                            x       y       z     vdW  Elec       q    Type
REMARK                         _______ _______ _______ _____ _____    ______ ____
ROOT
ATOM      1  O   HOH     1      -4.470   4.935  34.309  0.00  0.00    +0.000 OA
ENDROOT
TORSDOF 0
REMARK  Name = ../refined-set-2016/2vvv/2vvv_pocket.pdb
REMARK  215 active torsions:
REMARK  status: ('A' for Active; 'I' for Inactive)
REMARK    1  A    between atoms: _1  and  _5
REMARK    2  A    between atoms: _5  and  _6
REMARK    3  A    between atoms: _5  and  _8
REMARK    4  A    between atoms: _8  and  _9
REMARK    5  A    between atoms: _12  and  _14
REMARK    6  A    between atoms: _14  and  _15
REMARK    7  A    between atoms: _14  and  _17
REMARK    8  A    between atoms: _20  and  _22
REMARK    9  A    between atoms: _22  and  _23
REMARK   10  A    between atoms: _22  and  _25
REMARK   11  A    between atoms: _25  and  _26
REMARK   12  A    between atoms: _31  and  _33
REMARK   13  A    between atoms: _33  and  _34
REMARK   14  A    between atoms: _33  and  _36
REMARK   15  A    between atoms: _36  and  _37
REMARK   16  A    between atoms: _37  and  _38
REMARK   17  A    between atoms: _43  and  _45
REMARK   18  A    between atoms: _45  and  _46
REMARK   19  A    between atoms: _45  and  _48
REMARK   20  A    between atoms: _48  and  _49
REMARK   21  A    between atoms: _52  and  _54
REMARK   22  A    between atoms: _54  and  _55
REMARK   23  A    between atoms: _54  and  _57
REMARK   24  A    between atoms: _57  and  _58
REMARK   25  A    between atoms: _58  and  _59
REMARK   26  A    between atoms: _59  and  _60
REMARK   27  A    between atoms: _60  and  _61
REMARK   28  A    between atoms: _65  and  _67
REMARK   29  A    between atoms: _67  and  _68
REMARK   30  A    between atoms: _67  and  _70
REMARK   31  A    between atoms: _70  and  _71
REMARK   32  A    between atoms: _71  and  _72
REMARK   33  A    between atoms: _75  and  _77
REMARK   34  A    between atoms: _77  and  _78
REMARK   35  A    between atoms: _77  and  _80
REMARK   36  A    between atoms: _80  and  _81
REMARK   37  A    between atoms: _84  and  _86
REMARK   38  A    between atoms: _86  and  _87
REMARK   39  A    between atoms: _86  and  _89
REMARK   40  A    between atoms: _89  and  _90
REMARK   41  A    between atoms: _95  and  _96
REMARK   42  A    between atoms: _98  and  _100
REMARK   43  A    between atoms: _100  and  _101
REMARK   44  A    between atoms: _100  and  _103
REMARK   45  A    between atoms: _103  and  _104
REMARK   46  A    between atoms: _107  and  _109
REMARK   47  A    between atoms: _109  and  _110
REMARK   48  A    between atoms: _109  and  _112
REMARK   49  A    between atoms: _112  and  _113
REMARK   50  A    between atoms: _116  and  _118
REMARK   51  A    between atoms: _118  and  _119
REMARK   52  A    between atoms: _118  and  _121
REMARK   53  A    between atoms: _124  and  _126
REMARK   54  A    between atoms: _126  and  _127
REMARK   55  A    between atoms: _126  and  _129
REMARK   56  A    between atoms: _129  and  _130
REMARK   57  A    between atoms: _130  and  _131
REMARK   58  A    between atoms: _131  and  _132
REMARK   59  A    between atoms: _141  and  _143
REMARK   60  A    between atoms: _143  and  _144
REMARK   61  A    between atoms: _143  and  _146
REMARK   62  A    between atoms: _146  and  _147
REMARK   63  A    between atoms: _147  and  _148
REMARK   64  A    between atoms: _151  and  _153
REMARK   65  A    between atoms: _153  and  _154
REMARK   66  A    between atoms: _153  and  _156
REMARK   67  A    between atoms: _156  and  _157
REMARK   68  A    between atoms: _157  and  _158
REMARK   69  A    between atoms: _158  and  _159
REMARK   70  A    between atoms: _159  and  _160
REMARK   71  A    between atoms: _164  and  _166
REMARK   72  A    between atoms: _166  and  _167
REMARK   73  A    between atoms: _166  and  _169
REMARK   74  A    between atoms: _172  and  _174
REMARK   75  A    between atoms: _174  and  _175
REMARK   76  A    between atoms: _174  and  _177
REMARK   77  A    between atoms: _177  and  _178
REMARK   78  A    between atoms: _180  and  _182
REMARK   79  A    between atoms: _182  and  _183
REMARK   80  A    between atoms: _182  and  _185
REMARK   81  A    between atoms: _185  and  _186
REMARK   82  A    between atoms: _188  and  _190
REMARK   83  A    between atoms: _190  and  _191
REMARK   84  A    between atoms: _190  and  _193
REMARK   85  A    between atoms: _193  and  _194
REMARK   86  A    between atoms: _200  and  _202
REMARK   87  A    between atoms: _202  and  _203
REMARK   88  A    between atoms: _202  and  _205
REMARK   89  A    between atoms: _205  and  _206
REMARK   90  A    between atoms: _209  and  _211
REMARK   91  A    between atoms: _211  and  _212
REMARK   92  A    between atoms: _211  and  _214
REMARK   93  A    between atoms: _214  and  _215
REMARK   94  A    between atoms: _218  and  _220
REMARK   95  A    between atoms: _220  and  _221
REMARK   96  A    between atoms: _220  and  _223
REMARK   97  A    between atoms: _223  and  _224
REMARK   98  A    between atoms: _227  and  _229
REMARK   99  A    between atoms: _229  and  _230
REMARK  100  A    between atoms: _229  and  _232
REMARK  101  A    between atoms: _232  and  _233
REMARK  102  A    between atoms: _233  and  _234
REMARK  103  A    between atoms: _236  and  _238
REMARK  104  A    between atoms: _238  and  _239
REMARK  105  A    between atoms: _238  and  _241
REMARK  106  A    between atoms: _241  and  _242
REMARK  107  A    between atoms: _248  and  _250
REMARK  108  A    between atoms: _250  and  _251
REMARK  109  A    between atoms: _250  and  _253
REMARK  110  A    between atoms: _255  and  _257
REMARK  111  A    between atoms: _257  and  _258
REMARK  112  A    between atoms: _261  and  _263
REMARK  113  A    between atoms: _263  and  _264
REMARK  114  A    between atoms: _266  and  _268
REMARK  115  A    between atoms: _268  and  _269
REMARK  116  A    between atoms: _268  and  _271
REMARK  117  A    between atoms: _271  and  _272
REMARK  118  A    between atoms: _272  and  _273
REMARK  119  A    between atoms: _276  and  _278
REMARK  120  A    between atoms: _278  and  _279
REMARK  121  A    between atoms: _278  and  _281
REMARK  122  A    between atoms: _281  and  _282
REMARK  123  A    between atoms: _285  and  _287
REMARK  124  A    between atoms: _287  and  _288
REMARK  125  A    between atoms: _291  and  _293
REMARK  126  A    between atoms: _293  and  _294
REMARK  127  A    between atoms: _293  and  _296
REMARK  128  A    between atoms: _296  and  _297
REMARK  129  A    between atoms: _297  and  _420
REMARK  130  A    between atoms: _298  and  _300
REMARK  131  A    between atoms: _300  and  _301
REMARK  132  A    between atoms: _300  and  _303
REMARK  133  A    between atoms: _303  and  _304
REMARK  134  A    between atoms: _304  and  _305
REMARK  135  A    between atoms: _310  and  _312
REMARK  136  A    between atoms: _312  and  _313
REMARK  137  A    between atoms: _315  and  _317
REMARK  138  A    between atoms: _317  and  _318
REMARK  139  A    between atoms: _317  and  _320
REMARK  140  A    between atoms: _320  and  _321
REMARK  141  A    between atoms: _324  and  _326
REMARK  142  A    between atoms: _326  and  _327
REMARK  143  A    between atoms: _326  and  _329
REMARK  144  A    between atoms: _329  and  _330
REMARK  145  A    between atoms: _332  and  _334
REMARK  146  A    between atoms: _334  and  _335
REMARK  147  A    between atoms: _337  and  _339
REMARK  148  A    between atoms: _339  and  _340
REMARK  149  A    between atoms: _342  and  _344
REMARK  150  A    between atoms: _344  and  _345
REMARK  151  A    between atoms: _344  and  _347
REMARK  152  A    between atoms: _347  and  _348
REMARK  153  A    between atoms: _353  and  _355
REMARK  154  A    between atoms: _355  and  _356
REMARK  155  A    between atoms: _355  and  _358
REMARK  156  A    between atoms: _358  and  _359
REMARK  157  A    between atoms: _362  and  _364
REMARK  158  A    between atoms: _364  and  _365
REMARK  159  A    between atoms: _364  and  _367
REMARK  160  A    between atoms: _370  and  _372
REMARK  161  A    between atoms: _372  and  _373
REMARK  162  A    between atoms: _372  and  _375
REMARK  163  A    between atoms: _375  and  _376
REMARK  164  A    between atoms: _378  and  _380
REMARK  165  A    between atoms: _380  and  _381
REMARK  166  A    between atoms: _380  and  _383
REMARK  167  A    between atoms: _383  and  _384
REMARK  168  A    between atoms: _394  and  _396
REMARK  169  A    between atoms: _396  and  _397
REMARK  170  A    between atoms: _399  and  _401
REMARK  171  A    between atoms: _401  and  _402
REMARK  172  A    between atoms: _401  and  _404
REMARK  173  A    between atoms: _404  and  _405
REMARK  174  A    between atoms: _405  and  _406
REMARK  175  A    between atoms: _409  and  _411
REMARK  176  A    between atoms: _411  and  _412
REMARK  177  A    between atoms: _414  and  _416
REMARK  178  A    between atoms: _416  and  _417
REMARK  179  A    between atoms: _416  and  _419
REMARK  180  A    between atoms: _419  and  _420
REMARK  181  A    between atoms: _421  and  _423
REMARK  182  A    between atoms: _423  and  _424
REMARK  183  A    between atoms: _427  and  _429
REMARK  184  A    between atoms: _429  and  _430
REMARK  185  A    between atoms: _429  and  _432
REMARK  186  A    between atoms: _432  and  _433
REMARK  187  A    between atoms: _433  and  _434
REMARK  188  A    between atoms: _434  and  _435
REMARK  189  A    between atoms: _444  and  _446
REMARK  190  A    between atoms: _446  and  _447
REMARK  191  A    between atoms: _446  and  _449
REMARK  192  A    between atoms: _449  and  _450
REMARK  193  A    between atoms: _450  and  _451
REMARK  194  A    between atoms: _451  and  _452
REMARK  195  A    between atoms: _452  and  _453
REMARK  196  A    between atoms: _457  and  _459
REMARK  197  A    between atoms: _459  and  _460
REMARK  198  A    between atoms: _459  and  _462
REMARK  199  A    between atoms: _462  and  _463
REMARK  200  A    between atoms: _468  and  _469
REMARK  201  A    between atoms: _471  and  _473
REMARK  202  A    between atoms: _473  and  _474
REMARK  203  A    between atoms: _476  and  _478
REMARK  204  A    between atoms: _478  and  _479
REMARK  205  A    between atoms: _478  and  _481
REMARK  206  A    between atoms: _481  and  _482
REMARK  207  A    between atoms: _485  and  _487
REMARK  208  A    between atoms: _487  and  _488
REMARK  209  A    between atoms: _487  and  _490
REMARK  210  A    between atoms: _490  and  _491
REMARK  211  A    between atoms: _496  and  _497
REMARK  212  A    between atoms: _499  and  _501
REMARK  213  A    between atoms: _501  and  _502
REMARK  214  A    between atoms: _501  and  _504
REMARK  215  A    between atoms: _504  and  _505
REMARK                            x       y       z     vdW  Elec       q    Type
REMARK                         _______ _______ _______ _____ _____    ______ ____
ROOT
ATOM      1  O   HOH     1      -5.613   7.191  29.042  0.00  0.00    +0.000 OA
ENDROOT
TORSDOF 0
REMARK  Name = ../refined-set-2016/2vvv/2vvv_pocket.pdb
REMARK  215 active torsions:
REMARK  status: ('A' for Active; 'I' for Inactive)
REMARK    1  A    between atoms: _1  and  _5
REMARK    2  A    between atoms: _5  and  _6
REMARK    3  A    between atoms: _5  and  _8
REMARK    4  A    between atoms: _8  and  _9
REMARK    5  A    between atoms: _12  and  _14
REMARK    6  A    between atoms: _14  and  _15
REMARK    7  A    between atoms: _14  and  _17
REMARK    8  A    between atoms: _20  and  _22
REMARK    9  A    between atoms: _22  and  _23
REMARK   10  A    between atoms: _22  and  _25
REMARK   11  A    between atoms: _25  and  _26
REMARK   12  A    between atoms: _31  and  _33
REMARK   13  A    between atoms: _33  and  _34
REMARK   14  A    between atoms: _33  and  _36
REMARK   15  A    between atoms: _36  and  _37
REMARK   16  A    between atoms: _37  and  _38
REMARK   17  A    between atoms: _43  and  _45
REMARK   18  A    between atoms: _45  and  _46
REMARK   19  A    between atoms: _45  and  _48
REMARK   20  A    between atoms: _48  and  _49
REMARK   21  A    between atoms: _52  and  _54
REMARK   22  A    between atoms: _54  and  _55
REMARK   23  A    between atoms: _54  and  _57
REMARK   24  A    between atoms: _57  and  _58
REMARK   25  A    between atoms: _58  and  _59
REMARK   26  A    between atoms: _59  and  _60
REMARK   27  A    between atoms: _60  and  _61
REMARK   28  A    between atoms: _65  and  _67
REMARK   29  A    between atoms: _67  and  _68
REMARK   30  A    between atoms: _67  and  _70
REMARK   31  A    between atoms: _70  and  _71
REMARK   32  A    between atoms: _71  and  _72
REMARK   33  A    between atoms: _75  and  _77
REMARK   34  A    between atoms: _77  and  _78
REMARK   35  A    between atoms: _77  and  _80
REMARK   36  A    between atoms: _80  and  _81
REMARK   37  A    between atoms: _84  and  _86
REMARK   38  A    between atoms: _86  and  _87
REMARK   39  A    between atoms: _86  and  _89
REMARK   40  A    between atoms: _89  and  _90
REMARK   41  A    between atoms: _95  and  _96
REMARK   42  A    between atoms: _98  and  _100
REMARK   43  A    between atoms: _100  and  _101
REMARK   44  A    between atoms: _100  and  _103
REMARK   45  A    between atoms: _103  and  _104
REMARK   46  A    between atoms: _107  and  _109
REMARK   47  A    between atoms: _109  and  _110
REMARK   48  A    between atoms: _109  and  _112
REMARK   49  A    between atoms: _112  and  _113
REMARK   50  A    between atoms: _116  and  _118
REMARK   51  A    between atoms: _118  and  _119
REMARK   52  A    between atoms: _118  and  _121
REMARK   53  A    between atoms: _124  and  _126
REMARK   54  A    between atoms: _126  and  _127
REMARK   55  A    between atoms: _126  and  _129
REMARK   56  A    between atoms: _129  and  _130
REMARK   57  A    between atoms: _130  and  _131
REMARK   58  A    between atoms: _131  and  _132
REMARK   59  A    between atoms: _141  and  _143
REMARK   60  A    between atoms: _143  and  _144
REMARK   61  A    between atoms: _143  and  _146
REMARK   62  A    between atoms: _146  and  _147
REMARK   63  A    between atoms: _147  and  _148
REMARK   64  A    between atoms: _151  and  _153
REMARK   65  A    between atoms: _153  and  _154
REMARK   66  A    between atoms: _153  and  _156
REMARK   67  A    between atoms: _156  and  _157
REMARK   68  A    between atoms: _157  and  _158
REMARK   69  A    between atoms: _158  and  _159
REMARK   70  A    between atoms: _159  and  _160
REMARK   71  A    between atoms: _164  and  _166
REMARK   72  A    between atoms: _166  and  _167
REMARK   73  A    between atoms: _166  and  _169
REMARK   74  A    between atoms: _172  and  _174
REMARK   75  A    between atoms: _174  and  _175
REMARK   76  A    between atoms: _174  and  _177
REMARK   77  A    between atoms: _177  and  _178
REMARK   78  A    between atoms: _180  and  _182
REMARK   79  A    between atoms: _182  and  _183
REMARK   80  A    between atoms: _182  and  _185
REMARK   81  A    between atoms: _185  and  _186
REMARK   82  A    between atoms: _188  and  _190
REMARK   83  A    between atoms: _190  and  _191
REMARK   84  A    between atoms: _190  and  _193
REMARK   85  A    between atoms: _193  and  _194
REMARK   86  A    between atoms: _200  and  _202
REMARK   87  A    between atoms: _202  and  _203
REMARK   88  A    between atoms: _202  and  _205
REMARK   89  A    between atoms: _205  and  _206
REMARK   90  A    between atoms: _209  and  _211
REMARK   91  A    between atoms: _211  and  _212
REMARK   92  A    between atoms: _211  and  _214
REMARK   93  A    between atoms: _214  and  _215
REMARK   94  A    between atoms: _218  and  _220
REMARK   95  A    between atoms: _220  and  _221
REMARK   96  A    between atoms: _220  and  _223
REMARK   97  A    between atoms: _223  and  _224
REMARK   98  A    between atoms: _227  and  _229
REMARK   99  A    between atoms: _229  and  _230
REMARK  100  A    between atoms: _229  and  _232
REMARK  101  A    between atoms: _232  and  _233
REMARK  102  A    between atoms: _233  and  _234
REMARK  103  A    between atoms: _236  and  _238
REMARK  104  A    between atoms: _238  and  _239
REMARK  105  A    between atoms: _238  and  _241
REMARK  106  A    between atoms: _241  and  _242
REMARK  107  A    between atoms: _248  and  _250
REMARK  108  A    between atoms: _250  and  _251
REMARK  109  A    between atoms: _250  and  _253
REMARK  110  A    between atoms: _255  and  _257
REMARK  111  A    between atoms: _257  and  _258
REMARK  112  A    between atoms: _261  and  _263
REMARK  113  A    between atoms: _263  and  _264
REMARK  114  A    between atoms: _266  and  _268
REMARK  115  A    between atoms: _268  and  _269
REMARK  116  A    between atoms: _268  and  _271
REMARK  117  A    between atoms: _271  and  _272
REMARK  118  A    between atoms: _272  and  _273
REMARK  119  A    between atoms: _276  and  _278
REMARK  120  A    between atoms: _278  and  _279
REMARK  121  A    between atoms: _278  and  _281
REMARK  122  A    between atoms: _281  and  _282
REMARK  123  A    between atoms: _285  and  _287
REMARK  124  A    between atoms: _287  and  _288
REMARK  125  A    between atoms: _291  and  _293
REMARK  126  A    between atoms: _293  and  _294
REMARK  127  A    between atoms: _293  and  _296
REMARK  128  A    between atoms: _296  and  _297
REMARK  129  A    between atoms: _297  and  _420
REMARK  130  A    between atoms: _298  and  _300
REMARK  131  A    between atoms: _300  and  _301
REMARK  132  A    between atoms: _300  and  _303
REMARK  133  A    between atoms: _303  and  _304
REMARK  134  A    between atoms: _304  and  _305
REMARK  135  A    between atoms: _310  and  _312
REMARK  136  A    between atoms: _312  and  _313
REMARK  137  A    between atoms: _315  and  _317
REMARK  138  A    between atoms: _317  and  _318
REMARK  139  A    between atoms: _317  and  _320
REMARK  140  A    between atoms: _320  and  _321
REMARK  141  A    between atoms: _324  and  _326
REMARK  142  A    between atoms: _326  and  _327
REMARK  143  A    between atoms: _326  and  _329
REMARK  144  A    between atoms: _329  and  _330
REMARK  145  A    between atoms: _332  and  _334
REMARK  146  A    between atoms: _334  and  _335
REMARK  147  A    between atoms: _337  and  _339
REMARK  148  A    between atoms: _339  and  _340
REMARK  149  A    between atoms: _342  and  _344
REMARK  150  A    between atoms: _344  and  _345
REMARK  151  A    between atoms: _344  and  _347
REMARK  152  A    between atoms: _347  and  _348
REMARK  153  A    between atoms: _353  and  _355
REMARK  154  A    between atoms: _355  and  _356
REMARK  155  A    between atoms: _355  and  _358
REMARK  156  A    between atoms: _358  and  _359
REMARK  157  A    between atoms: _362  and  _364
REMARK  158  A    between atoms: _364  and  _365
REMARK  159  A    between atoms: _364  and  _367
REMARK  160  A    between atoms: _370  and  _372
REMARK  161  A    between atoms: _372  and  _373
REMARK  162  A    between atoms: _372  and  _375
REMARK  163  A    between atoms: _375  and  _376
REMARK  164  A    between atoms: _378  and  _380
REMARK  165  A    between atoms: _380  and  _381
REMARK  166  A    between atoms: _380  and  _383
REMARK  167  A    between atoms: _383  and  _384
REMARK  168  A    between atoms: _394  and  _396
REMARK  169  A    between atoms: _396  and  _397
REMARK  170  A    between atoms: _399  and  _401
REMARK  171  A    between atoms: _401  and  _402
REMARK  172  A    between atoms: _401  and  _404
REMARK  173  A    between atoms: _404  and  _405
REMARK  174  A    between atoms: _405  and  _406
REMARK  175  A    between atoms: _409  and  _411
REMARK  176  A    between atoms: _411  and  _412
REMARK  177  A    between atoms: _414  and  _416
REMARK  178  A    between atoms: _416  and  _417
REMARK  179  A    between atoms: _416  and  _419
REMARK  180  A    between atoms: _419  and  _420
REMARK  181  A    between atoms: _421  and  _423
REMARK  182  A    between atoms: _423  and  _424
REMARK  183  A    between atoms: _427  and  _429
REMARK  184  A    between atoms: _429  and  _430
REMARK  185  A    between atoms: _429  and  _432
REMARK  186  A    between atoms: _432  and  _433
REMARK  187  A    between atoms: _433  and  _434
REMARK  188  A    between atoms: _434  and  _435
REMARK  189  A    between atoms: _444  and  _446
REMARK  190  A    between atoms: _446  and  _447
REMARK  191  A    between atoms: _446  and  _449
REMARK  192  A    between atoms: _449  and  _450
REMARK  193  A    between atoms: _450  and  _451
REMARK  194  A    between atoms: _451  and  _452
REMARK  195  A    between atoms: _452  and  _453
REMARK  196  A    between atoms: _457  and  _459
REMARK  197  A    between atoms: _459  and  _460
REMARK  198  A    between atoms: _459  and  _462
REMARK  199  A    between atoms: _462  and  _463
REMARK  200  A    between atoms: _468  and  _469
REMARK  201  A    between atoms: _471  and  _473
REMARK  202  A    between atoms: _473  and  _474
REMARK  203  A    between atoms: _476  and  _478
REMARK  204  A    between atoms: _478  and  _479
REMARK  205  A    between atoms: _478  and  _481
REMARK  206  A    between atoms: _481  and  _482
REMARK  207  A    between atoms: _485  and  _487
REMARK  208  A    between atoms: _487  and  _488
REMARK  209  A    between atoms: _487  and  _490
REMARK  210  A    between atoms: _490  and  _491
REMARK  211  A    between atoms: _496  and  _497
REMARK  212  A    between atoms: _499  and  _501
REMARK  213  A    between atoms: _501  and  _502
REMARK  214  A    between atoms: _501  and  _504
REMARK  215  A    between atoms: _504  and  _505
REMARK                            x       y       z     vdW  Elec       q    Type
REMARK                         _______ _______ _______ _____ _____    ______ ____
ROOT
ATOM      1  O   HOH     1      -6.549  16.063  25.615  0.00  0.00    +0.000 OA
ENDROOT
TORSDOF 0
REMARK  Name = ../refined-set-2016/2vvv/2vvv_pocket.pdb
REMARK  215 active torsions:
REMARK  status: ('A' for Active; 'I' for Inactive)
REMARK    1  A    between atoms: _1  and  _5
REMARK    2  A    between atoms: _5  and  _6
REMARK    3  A    between atoms: _5  and  _8
REMARK    4  A    between atoms: _8  and  _9
REMARK    5  A    between atoms: _12  and  _14
REMARK    6  A    between atoms: _14  and  _15
REMARK    7  A    between atoms: _14  and  _17
REMARK    8  A    between atoms: _20  and  _22
REMARK    9  A    between atoms: _22  and  _23
REMARK   10  A    between atoms: _22  and  _25
REMARK   11  A    between atoms: _25  and  _26
REMARK   12  A    between atoms: _31  and  _33
REMARK   13  A    between atoms: _33  and  _34
REMARK   14  A    between atoms: _33  and  _36
REMARK   15  A    between atoms: _36  and  _37
REMARK   16  A    between atoms: _37  and  _38
REMARK   17  A    between atoms: _43  and  _45
REMARK   18  A    between atoms: _45  and  _46
REMARK   19  A    between atoms: _45  and  _48
REMARK   20  A    between atoms: _48  and  _49
REMARK   21  A    between atoms: _52  and  _54
REMARK   22  A    between atoms: _54  and  _55
REMARK   23  A    between atoms: _54  and  _57
REMARK   24  A    between atoms: _57  and  _58
REMARK   25  A    between atoms: _58  and  _59
REMARK   26  A    between atoms: _59  and  _60
REMARK   27  A    between atoms: _60  and  _61
REMARK   28  A    between atoms: _65  and  _67
REMARK   29  A    between atoms: _67  and  _68
REMARK   30  A    between atoms: _67  and  _70
REMARK   31  A    between atoms: _70  and  _71
REMARK   32  A    between atoms: _71  and  _72
REMARK   33  A    between atoms: _75  and  _77
REMARK   34  A    between atoms: _77  and  _78
REMARK   35  A    between atoms: _77  and  _80
REMARK   36  A    between atoms: _80  and  _81
REMARK   37  A    between atoms: _84  and  _86
REMARK   38  A    between atoms: _86  and  _87
REMARK   39  A    between atoms: _86  and  _89
REMARK   40  A    between atoms: _89  and  _90
REMARK   41  A    between atoms: _95  and  _96
REMARK   42  A    between atoms: _98  and  _100
REMARK   43  A    between atoms: _100  and  _101
REMARK   44  A    between atoms: _100  and  _103
REMARK   45  A    between atoms: _103  and  _104
REMARK   46  A    between atoms: _107  and  _109
REMARK   47  A    between atoms: _109  and  _110
REMARK   48  A    between atoms: _109  and  _112
REMARK   49  A    between atoms: _112  and  _113
REMARK   50  A    between atoms: _116  and  _118
REMARK   51  A    between atoms: _118  and  _119
REMARK   52  A    between atoms: _118  and  _121
REMARK   53  A    between atoms: _124  and  _126
REMARK   54  A    between atoms: _126  and  _127
REMARK   55  A    between atoms: _126  and  _129
REMARK   56  A    between atoms: _129  and  _130
REMARK   57  A    between atoms: _130  and  _131
REMARK   58  A    between atoms: _131  and  _132
REMARK   59  A    between atoms: _141  and  _143
REMARK   60  A    between atoms: _143  and  _144
REMARK   61  A    between atoms: _143  and  _146
REMARK   62  A    between atoms: _146  and  _147
REMARK   63  A    between atoms: _147  and  _148
REMARK   64  A    between atoms: _151  and  _153
REMARK   65  A    between atoms: _153  and  _154
REMARK   66  A    between atoms: _153  and  _156
REMARK   67  A    between atoms: _156  and  _157
REMARK   68  A    between atoms: _157  and  _158
REMARK   69  A    between atoms: _158  and  _159
REMARK   70  A    between atoms: _159  and  _160
REMARK   71  A    between atoms: _164  and  _166
REMARK   72  A    between atoms: _166  and  _167
REMARK   73  A    between atoms: _166  and  _169
REMARK   74  A    between atoms: _172  and  _174
REMARK   75  A    between atoms: _174  and  _175
REMARK   76  A    between atoms: _174  and  _177
REMARK   77  A    between atoms: _177  and  _178
REMARK   78  A    between atoms: _180  and  _182
REMARK   79  A    between atoms: _182  and  _183
REMARK   80  A    between atoms: _182  and  _185
REMARK   81  A    between atoms: _185  and  _186
REMARK   82  A    between atoms: _188  and  _190
REMARK   83  A    between atoms: _190  and  _191
REMARK   84  A    between atoms: _190  and  _193
REMARK   85  A    between atoms: _193  and  _194
REMARK   86  A    between atoms: _200  and  _202
REMARK   87  A    between atoms: _202  and  _203
REMARK   88  A    between atoms: _202  and  _205
REMARK   89  A    between atoms: _205  and  _206
REMARK   90  A    between atoms: _209  and  _211
REMARK   91  A    between atoms: _211  and  _212
REMARK   92  A    between atoms: _211  and  _214
REMARK   93  A    between atoms: _214  and  _215
REMARK   94  A    between atoms: _218  and  _220
REMARK   95  A    between atoms: _220  and  _221
REMARK   96  A    between atoms: _220  and  _223
REMARK   97  A    between atoms: _223  and  _224
REMARK   98  A    between atoms: _227  and  _229
REMARK   99  A    between atoms: _229  and  _230
REMARK  100  A    between atoms: _229  and  _232
REMARK  101  A    between atoms: _232  and  _233
REMARK  102  A    between atoms: _233  and  _234
REMARK  103  A    between atoms: _236  and  _238
REMARK  104  A    between atoms: _238  and  _239
REMARK  105  A    between atoms: _238  and  _241
REMARK  106  A    between atoms: _241  and  _242
REMARK  107  A    between atoms: _248  and  _250
REMARK  108  A    between atoms: _250  and  _251
REMARK  109  A    between atoms: _250  and  _253
REMARK  110  A    between atoms: _255  and  _257
REMARK  111  A    between atoms: _257  and  _258
REMARK  112  A    between atoms: _261  and  _263
REMARK  113  A    between atoms: _263  and  _264
REMARK  114  A    between atoms: _266  and  _268
REMARK  115  A    between atoms: _268  and  _269
REMARK  116  A    between atoms: _268  and  _271
REMARK  117  A    between atoms: _271  and  _272
REMARK  118  A    between atoms: _272  and  _273
REMARK  119  A    between atoms: _276  and  _278
REMARK  120  A    between atoms: _278  and  _279
REMARK  121  A    between atoms: _278  and  _281
REMARK  122  A    between atoms: _281  and  _282
REMARK  123  A    between atoms: _285  and  _287
REMARK  124  A    between atoms: _287  and  _288
REMARK  125  A    between atoms: _291  and  _293
REMARK  126  A    between atoms: _293  and  _294
REMARK  127  A    between atoms: _293  and  _296
REMARK  128  A    between atoms: _296  and  _297
REMARK  129  A    between atoms: _297  and  _420
REMARK  130  A    between atoms: _298  and  _300
REMARK  131  A    between atoms: _300  and  _301
REMARK  132  A    between atoms: _300  and  _303
REMARK  133  A    between atoms: _303  and  _304
REMARK  134  A    between atoms: _304  and  _305
REMARK  135  A    between atoms: _310  and  _312
REMARK  136  A    between atoms: _312  and  _313
REMARK  137  A    between atoms: _315  and  _317
REMARK  138  A    between atoms: _317  and  _318
REMARK  139  A    between atoms: _317  and  _320
REMARK  140  A    between atoms: _320  and  _321
REMARK  141  A    between atoms: _324  and  _326
REMARK  142  A    between atoms: _326  and  _327
REMARK  143  A    between atoms: _326  and  _329
REMARK  144  A    between atoms: _329  and  _330
REMARK  145  A    between atoms: _332  and  _334
REMARK  146  A    between atoms: _334  and  _335
REMARK  147  A    between atoms: _337  and  _339
REMARK  148  A    between atoms: _339  and  _340
REMARK  149  A    between atoms: _342  and  _344
REMARK  150  A    between atoms: _344  and  _345
REMARK  151  A    between atoms: _344  and  _347
REMARK  152  A    between atoms: _347  and  _348
REMARK  153  A    between atoms: _353  and  _355
REMARK  154  A    between atoms: _355  and  _356
REMARK  155  A    between atoms: _355  and  _358
REMARK  156  A    between atoms: _358  and  _359
REMARK  157  A    between atoms: _362  and  _364
REMARK  158  A    between atoms: _364  and  _365
REMARK  159  A    between atoms: _364  and  _367
REMARK  160  A    between atoms: _370  and  _372
REMARK  161  A    between atoms: _372  and  _373
REMARK  162  A    between atoms: _372  and  _375
REMARK  163  A    between atoms: _375  and  _376
REMARK  164  A    between atoms: _378  and  _380
REMARK  165  A    between atoms: _380  and  _381
REMARK  166  A    between atoms: _380  and  _383
REMARK  167  A    between atoms: _383  and  _384
REMARK  168  A    between atoms: _394  and  _396
REMARK  169  A    between atoms: _396  and  _397
REMARK  170  A    between atoms: _399  and  _401
REMARK  171  A    between atoms: _401  and  _402
REMARK  172  A    between atoms: _401  and  _404
REMARK  173  A    between atoms: _404  and  _405
REMARK  174  A    between atoms: _405  and  _406
REMARK  175  A    between atoms: _409  and  _411
REMARK  176  A    between atoms: _411  and  _412
REMARK  177  A    between atoms: _414  and  _416
REMARK  178  A    between atoms: _416  and  _417
REMARK  179  A    between atoms: _416  and  _419
REMARK  180  A    between atoms: _419  and  _420
REMARK  181  A    between atoms: _421  and  _423
REMARK  182  A    between atoms: _423  and  _424
REMARK  183  A    between atoms: _427  and  _429
REMARK  184  A    between atoms: _429  and  _430
REMARK  185  A    between atoms: _429  and  _432
REMARK  186  A    between atoms: _432  and  _433
REMARK  187  A    between atoms: _433  and  _434
REMARK  188  A    between atoms: _434  and  _435
REMARK  189  A    between atoms: _444  and  _446
REMARK  190  A    between atoms: _446  and  _447
REMARK  191  A    between atoms: _446  and  _449
REMARK  192  A    between atoms: _449  and  _450
REMARK  193  A    between atoms: _450  and  _451
REMARK  194  A    between atoms: _451  and  _452
REMARK  195  A    between atoms: _452  and  _453
REMARK  196  A    between atoms: _457  and  _459
REMARK  197  A    between atoms: _459  and  _460
REMARK  198  A    between atoms: _459  and  _462
REMARK  199  A    between atoms: _462  and  _463
REMARK  200  A    between atoms: _468  and  _469
REMARK  201  A    between atoms: _471  and  _473
REMARK  202  A    between atoms: _473  and  _474
REMARK  203  A    between atoms: _476  and  _478
REMARK  204  A    between atoms: _478  and  _479
REMARK  205  A    between atoms: _478  and  _481
REMARK  206  A    between atoms: _481  and  _482
REMARK  207  A    between atoms: _485  and  _487
REMARK  208  A    between atoms: _487  and  _488
REMARK  209  A    between atoms: _487  and  _490
REMARK  210  A    between atoms: _490  and  _491
REMARK  211  A    between atoms: _496  and  _497
REMARK  212  A    between atoms: _499  and  _501
REMARK  213  A    between atoms: _501  and  _502
REMARK  214  A    between atoms: _501  and  _504
REMARK  215  A    between atoms: _504  and  _505
REMARK                            x       y       z     vdW  Elec       q    Type
REMARK                         _______ _______ _______ _____ _____    ______ ____
ROOT
ATOM      1  O   HOH     1       0.196   9.712  22.830  0.00  0.00    +0.000 OA
ENDROOT
TORSDOF 0
REMARK  Name = ../refined-set-2016/2vvv/2vvv_pocket.pdb
REMARK  215 active torsions:
REMARK  status: ('A' for Active; 'I' for Inactive)
REMARK    1  A    between atoms: _1  and  _5
REMARK    2  A    between atoms: _5  and  _6
REMARK    3  A    between atoms: _5  and  _8
REMARK    4  A    between atoms: _8  and  _9
REMARK    5  A    between atoms: _12  and  _14
REMARK    6  A    between atoms: _14  and  _15
REMARK    7  A    between atoms: _14  and  _17
REMARK    8  A    between atoms: _20  and  _22
REMARK    9  A    between atoms: _22  and  _23
REMARK   10  A    between atoms: _22  and  _25
REMARK   11  A    between atoms: _25  and  _26
REMARK   12  A    between atoms: _31  and  _33
REMARK   13  A    between atoms: _33  and  _34
REMARK   14  A    between atoms: _33  and  _36
REMARK   15  A    between atoms: _36  and  _37
REMARK   16  A    between atoms: _37  and  _38
REMARK   17  A    between atoms: _43  and  _45
REMARK   18  A    between atoms: _45  and  _46
REMARK   19  A    between atoms: _45  and  _48
REMARK   20  A    between atoms: _48  and  _49
REMARK   21  A    between atoms: _52  and  _54
REMARK   22  A    between atoms: _54  and  _55
REMARK   23  A    between atoms: _54  and  _57
REMARK   24  A    between atoms: _57  and  _58
REMARK   25  A    between atoms: _58  and  _59
REMARK   26  A    between atoms: _59  and  _60
REMARK   27  A    between atoms: _60  and  _61
REMARK   28  A    between atoms: _65  and  _67
REMARK   29  A    between atoms: _67  and  _68
REMARK   30  A    between atoms: _67  and  _70
REMARK   31  A    between atoms: _70  and  _71
REMARK   32  A    between atoms: _71  and  _72
REMARK   33  A    between atoms: _75  and  _77
REMARK   34  A    between atoms: _77  and  _78
REMARK   35  A    between atoms: _77  and  _80
REMARK   36  A    between atoms: _80  and  _81
REMARK   37  A    between atoms: _84  and  _86
REMARK   38  A    between atoms: _86  and  _87
REMARK   39  A    between atoms: _86  and  _89
REMARK   40  A    between atoms: _89  and  _90
REMARK   41  A    between atoms: _95  and  _96
REMARK   42  A    between atoms: _98  and  _100
REMARK   43  A    between atoms: _100  and  _101
REMARK   44  A    between atoms: _100  and  _103
REMARK   45  A    between atoms: _103  and  _104
REMARK   46  A    between atoms: _107  and  _109
REMARK   47  A    between atoms: _109  and  _110
REMARK   48  A    between atoms: _109  and  _112
REMARK   49  A    between atoms: _112  and  _113
REMARK   50  A    between atoms: _116  and  _118
REMARK   51  A    between atoms: _118  and  _119
REMARK   52  A    between atoms: _118  and  _121
REMARK   53  A    between atoms: _124  and  _126
REMARK   54  A    between atoms: _126  and  _127
REMARK   55  A    between atoms: _126  and  _129
REMARK   56  A    between atoms: _129  and  _130
REMARK   57  A    between atoms: _130  and  _131
REMARK   58  A    between atoms: _131  and  _132
REMARK   59  A    between atoms: _141  and  _143
REMARK   60  A    between atoms: _143  and  _144
REMARK   61  A    between atoms: _143  and  _146
REMARK   62  A    between atoms: _146  and  _147
REMARK   63  A    between atoms: _147  and  _148
REMARK   64  A    between atoms: _151  and  _153
REMARK   65  A    between atoms: _153  and  _154
REMARK   66  A    between atoms: _153  and  _156
REMARK   67  A    between atoms: _156  and  _157
REMARK   68  A    between atoms: _157  and  _158
REMARK   69  A    between atoms: _158  and  _159
REMARK   70  A    between atoms: _159  and  _160
REMARK   71  A    between atoms: _164  and  _166
REMARK   72  A    between atoms: _166  and  _167
REMARK   73  A    between atoms: _166  and  _169
REMARK   74  A    between atoms: _172  and  _174
REMARK   75  A    between atoms: _174  and  _175
REMARK   76  A    between atoms: _174  and  _177
REMARK   77  A    between atoms: _177  and  _178
REMARK   78  A    between atoms: _180  and  _182
REMARK   79  A    between atoms: _182  and  _183
REMARK   80  A    between atoms: _182  and  _185
REMARK   81  A    between atoms: _185  and  _186
REMARK   82  A    between atoms: _188  and  _190
REMARK   83  A    between atoms: _190  and  _191
REMARK   84  A    between atoms: _190  and  _193
REMARK   85  A    between atoms: _193  and  _194
REMARK   86  A    between atoms: _200  and  _202
REMARK   87  A    between atoms: _202  and  _203
REMARK   88  A    between atoms: _202  and  _205
REMARK   89  A    between atoms: _205  and  _206
REMARK   90  A    between atoms: _209  and  _211
REMARK   91  A    between atoms: _211  and  _212
REMARK   92  A    between atoms: _211  and  _214
REMARK   93  A    between atoms: _214  and  _215
REMARK   94  A    between atoms: _218  and  _220
REMARK   95  A    between atoms: _220  and  _221
REMARK   96  A    between atoms: _220  and  _223
REMARK   97  A    between atoms: _223  and  _224
REMARK   98  A    between atoms: _227  and  _229
REMARK   99  A    between atoms: _229  and  _230
REMARK  100  A    between atoms: _229  and  _232
REMARK  101  A    between atoms: _232  and  _233
REMARK  102  A    between atoms: _233  and  _234
REMARK  103  A    between atoms: _236  and  _238
REMARK  104  A    between atoms: _238  and  _239
REMARK  105  A    between atoms: _238  and  _241
REMARK  106  A    between atoms: _241  and  _242
REMARK  107  A    between atoms: _248  and  _250
REMARK  108  A    between atoms: _250  and  _251
REMARK  109  A    between atoms: _250  and  _253
REMARK  110  A    between atoms: _255  and  _257
REMARK  111  A    between atoms: _257  and  _258
REMARK  112  A    between atoms: _261  and  _263
REMARK  113  A    between atoms: _263  and  _264
REMARK  114  A    between atoms: _266  and  _268
REMARK  115  A    between atoms: _268  and  _269
REMARK  116  A    between atoms: _268  and  _271
REMARK  117  A    between atoms: _271  and  _272
REMARK  118  A    between atoms: _272  and  _273
REMARK  119  A    between atoms: _276  and  _278
REMARK  120  A    between atoms: _278  and  _279
REMARK  121  A    between atoms: _278  and  _281
REMARK  122  A    between atoms: _281  and  _282
REMARK  123  A    between atoms: _285  and  _287
REMARK  124  A    between atoms: _287  and  _288
REMARK  125  A    between atoms: _291  and  _293
REMARK  126  A    between atoms: _293  and  _294
REMARK  127  A    between atoms: _293  and  _296
REMARK  128  A    between atoms: _296  and  _297
REMARK  129  A    between atoms: _297  and  _420
REMARK  130  A    between atoms: _298  and  _300
REMARK  131  A    between atoms: _300  and  _301
REMARK  132  A    between atoms: _300  and  _303
REMARK  133  A    between atoms: _303  and  _304
REMARK  134  A    between atoms: _304  and  _305
REMARK  135  A    between atoms: _310  and  _312
REMARK  136  A    between atoms: _312  and  _313
REMARK  137  A    between atoms: _315  and  _317
REMARK  138  A    between atoms: _317  and  _318
REMARK  139  A    between atoms: _317  and  _320
REMARK  140  A    between atoms: _320  and  _321
REMARK  141  A    between atoms: _324  and  _326
REMARK  142  A    between atoms: _326  and  _327
REMARK  143  A    between atoms: _326  and  _329
REMARK  144  A    between atoms: _329  and  _330
REMARK  145  A    between atoms: _332  and  _334
REMARK  146  A    between atoms: _334  and  _335
REMARK  147  A    between atoms: _337  and  _339
REMARK  148  A    between atoms: _339  and  _340
REMARK  149  A    between atoms: _342  and  _344
REMARK  150  A    between atoms: _344  and  _345
REMARK  151  A    between atoms: _344  and  _347
REMARK  152  A    between atoms: _347  and  _348
REMARK  153  A    between atoms: _353  and  _355
REMARK  154  A    between atoms: _355  and  _356
REMARK  155  A    between atoms: _355  and  _358
REMARK  156  A    between atoms: _358  and  _359
REMARK  157  A    between atoms: _362  and  _364
REMARK  158  A    between atoms: _364  and  _365
REMARK  159  A    between atoms: _364  and  _367
REMARK  160  A    between atoms: _370  and  _372
REMARK  161  A    between atoms: _372  and  _373
REMARK  162  A    between atoms: _372  and  _375
REMARK  163  A    between atoms: _375  and  _376
REMARK  164  A    between atoms: _378  and  _380
REMARK  165  A    between atoms: _380  and  _381
REMARK  166  A    between atoms: _380  and  _383
REMARK  167  A    between atoms: _383  and  _384
REMARK  168  A    between atoms: _394  and  _396
REMARK  169  A    between atoms: _396  and  _397
REMARK  170  A    between atoms: _399  and  _401
REMARK  171  A    between atoms: _401  and  _402
REMARK  172  A    between atoms: _401  and  _404
REMARK  173  A    between atoms: _404  and  _405
REMARK  174  A    between atoms: _405  and  _406
REMARK  175  A    between atoms: _409  and  _411
REMARK  176  A    between atoms: _411  and  _412
REMARK  177  A    between atoms: _414  and  _416
REMARK  178  A    between atoms: _416  and  _417
REMARK  179  A    between atoms: _416  and  _419
REMARK  180  A    between atoms: _419  and  _420
REMARK  181  A    between atoms: _421  and  _423
REMARK  182  A    between atoms: _423  and  _424
REMARK  183  A    between atoms: _427  and  _429
REMARK  184  A    between atoms: _429  and  _430
REMARK  185  A    between atoms: _429  and  _432
REMARK  186  A    between atoms: _432  and  _433
REMARK  187  A    between atoms: _433  and  _434
REMARK  188  A    between atoms: _434  and  _435
REMARK  189  A    between atoms: _444  and  _446
REMARK  190  A    between atoms: _446  and  _447
REMARK  191  A    between atoms: _446  and  _449
REMARK  192  A    between atoms: _449  and  _450
REMARK  193  A    between atoms: _450  and  _451
REMARK  194  A    between atoms: _451  and  _452
REMARK  195  A    between atoms: _452  and  _453
REMARK  196  A    between atoms: _457  and  _459
REMARK  197  A    between atoms: _459  and  _460
REMARK  198  A    between atoms: _459  and  _462
REMARK  199  A    between atoms: _462  and  _463
REMARK  200  A    between atoms: _468  and  _469
REMARK  201  A    between atoms: _471  and  _473
REMARK  202  A    between atoms: _473  and  _474
REMARK  203  A    between atoms: _476  and  _478
REMARK  204  A    between atoms: _478  and  _479
REMARK  205  A    between atoms: _478  and  _481
REMARK  206  A    between atoms: _481  and  _482
REMARK  207  A    between atoms: _485  and  _487
REMARK  208  A    between atoms: _487  and  _488
REMARK  209  A    between atoms: _487  and  _490
REMARK  210  A    between atoms: _490  and  _491
REMARK  211  A    between atoms: _496  and  _497
REMARK  212  A    between atoms: _499  and  _501
REMARK  213  A    between atoms: _501  and  _502
REMARK  214  A    between atoms: _501  and  _504
REMARK  215  A    between atoms: _504  and  _505
REMARK                            x       y       z     vdW  Elec       q    Type
REMARK                         _______ _______ _______ _____ _____    ______ ____
ROOT
ATOM      1  O   HOH     1      -7.856   8.569  29.839  0.00  0.00    +0.000 OA
ENDROOT
TORSDOF 0
REMARK  Name = ../refined-set-2016/2vvv/2vvv_pocket.pdb
REMARK  215 active torsions:
REMARK  status: ('A' for Active; 'I' for Inactive)
REMARK    1  A    between atoms: _1  and  _5
REMARK    2  A    between atoms: _5  and  _6
REMARK    3  A    between atoms: _5  and  _8
REMARK    4  A    between atoms: _8  and  _9
REMARK    5  A    between atoms: _12  and  _14
REMARK    6  A    between atoms: _14  and  _15
REMARK    7  A    between atoms: _14  and  _17
REMARK    8  A    between atoms: _20  and  _22
REMARK    9  A    between atoms: _22  and  _23
REMARK   10  A    between atoms: _22  and  _25
REMARK   11  A    between atoms: _25  and  _26
REMARK   12  A    between atoms: _31  and  _33
REMARK   13  A    between atoms: _33  and  _34
REMARK   14  A    between atoms: _33  and  _36
REMARK   15  A    between atoms: _36  and  _37
REMARK   16  A    between atoms: _37  and  _38
REMARK   17  A    between atoms: _43  and  _45
REMARK   18  A    between atoms: _45  and  _46
REMARK   19  A    between atoms: _45  and  _48
REMARK   20  A    between atoms: _48  and  _49
REMARK   21  A    between atoms: _52  and  _54
REMARK   22  A    between atoms: _54  and  _55
REMARK   23  A    between atoms: _54  and  _57
REMARK   24  A    between atoms: _57  and  _58
REMARK   25  A    between atoms: _58  and  _59
REMARK   26  A    between atoms: _59  and  _60
REMARK   27  A    between atoms: _60  and  _61
REMARK   28  A    between atoms: _65  and  _67
REMARK   29  A    between atoms: _67  and  _68
REMARK   30  A    between atoms: _67  and  _70
REMARK   31  A    between atoms: _70  and  _71
REMARK   32  A    between atoms: _71  and  _72
REMARK   33  A    between atoms: _75  and  _77
REMARK   34  A    between atoms: _77  and  _78
REMARK   35  A    between atoms: _77  and  _80
REMARK   36  A    between atoms: _80  and  _81
REMARK   37  A    between atoms: _84  and  _86
REMARK   38  A    between atoms: _86  and  _87
REMARK   39  A    between atoms: _86  and  _89
REMARK   40  A    between atoms: _89  and  _90
REMARK   41  A    between atoms: _95  and  _96
REMARK   42  A    between atoms: _98  and  _100
REMARK   43  A    between atoms: _100  and  _101
REMARK   44  A    between atoms: _100  and  _103
REMARK   45  A    between atoms: _103  and  _104
REMARK   46  A    between atoms: _107  and  _109
REMARK   47  A    between atoms: _109  and  _110
REMARK   48  A    between atoms: _109  and  _112
REMARK   49  A    between atoms: _112  and  _113
REMARK   50  A    between atoms: _116  and  _118
REMARK   51  A    between atoms: _118  and  _119
REMARK   52  A    between atoms: _118  and  _121
REMARK   53  A    between atoms: _124  and  _126
REMARK   54  A    between atoms: _126  and  _127
REMARK   55  A    between atoms: _126  and  _129
REMARK   56  A    between atoms: _129  and  _130
REMARK   57  A    between atoms: _130  and  _131
REMARK   58  A    between atoms: _131  and  _132
REMARK   59  A    between atoms: _141  and  _143
REMARK   60  A    between atoms: _143  and  _144
REMARK   61  A    between atoms: _143  and  _146
REMARK   62  A    between atoms: _146  and  _147
REMARK   63  A    between atoms: _147  and  _148
REMARK   64  A    between atoms: _151  and  _153
REMARK   65  A    between atoms: _153  and  _154
REMARK   66  A    between atoms: _153  and  _156
REMARK   67  A    between atoms: _156  and  _157
REMARK   68  A    between atoms: _157  and  _158
REMARK   69  A    between atoms: _158  and  _159
REMARK   70  A    between atoms: _159  and  _160
REMARK   71  A    between atoms: _164  and  _166
REMARK   72  A    between atoms: _166  and  _167
REMARK   73  A    between atoms: _166  and  _169
REMARK   74  A    between atoms: _172  and  _174
REMARK   75  A    between atoms: _174  and  _175
REMARK   76  A    between atoms: _174  and  _177
REMARK   77  A    between atoms: _177  and  _178
REMARK   78  A    between atoms: _180  and  _182
REMARK   79  A    between atoms: _182  and  _183
REMARK   80  A    between atoms: _182  and  _185
REMARK   81  A    between atoms: _185  and  _186
REMARK   82  A    between atoms: _188  and  _190
REMARK   83  A    between atoms: _190  and  _191
REMARK   84  A    between atoms: _190  and  _193
REMARK   85  A    between atoms: _193  and  _194
REMARK   86  A    between atoms: _200  and  _202
REMARK   87  A    between atoms: _202  and  _203
REMARK   88  A    between atoms: _202  and  _205
REMARK   89  A    between atoms: _205  and  _206
REMARK   90  A    between atoms: _209  and  _211
REMARK   91  A    between atoms: _211  and  _212
REMARK   92  A    between atoms: _211  and  _214
REMARK   93  A    between atoms: _214  and  _215
REMARK   94  A    between atoms: _218  and  _220
REMARK   95  A    between atoms: _220  and  _221
REMARK   96  A    between atoms: _220  and  _223
REMARK   97  A    between atoms: _223  and  _224
REMARK   98  A    between atoms: _227  and  _229
REMARK   99  A    between atoms: _229  and  _230
REMARK  100  A    between atoms: _229  and  _232
REMARK  101  A    between atoms: _232  and  _233
REMARK  102  A    between atoms: _233  and  _234
REMARK  103  A    between atoms: _236  and  _238
REMARK  104  A    between atoms: _238  and  _239
REMARK  105  A    between atoms: _238  and  _241
REMARK  106  A    between atoms: _241  and  _242
REMARK  107  A    between atoms: _248  and  _250
REMARK  108  A    between atoms: _250  and  _251
REMARK  109  A    between atoms: _250  and  _253
REMARK  110  A    between atoms: _255  and  _257
REMARK  111  A    between atoms: _257  and  _258
REMARK  112  A    between atoms: _261  and  _263
REMARK  113  A    between atoms: _263  and  _264
REMARK  114  A    between atoms: _266  and  _268
REMARK  115  A    between atoms: _268  and  _269
REMARK  116  A    between atoms: _268  and  _271
REMARK  117  A    between atoms: _271  and  _272
REMARK  118  A    between atoms: _272  and  _273
REMARK  119  A    between atoms: _276  and  _278
REMARK  120  A    between atoms: _278  and  _279
REMARK  121  A    between atoms: _278  and  _281
REMARK  122  A    between atoms: _281  and  _282
REMARK  123  A    between atoms: _285  and  _287
REMARK  124  A    between atoms: _287  and  _288
REMARK  125  A    between atoms: _291  and  _293
REMARK  126  A    between atoms: _293  and  _294
REMARK  127  A    between atoms: _293  and  _296
REMARK  128  A    between atoms: _296  and  _297
REMARK  129  A    between atoms: _297  and  _420
REMARK  130  A    between atoms: _298  and  _300
REMARK  131  A    between atoms: _300  and  _301
REMARK  132  A    between atoms: _300  and  _303
REMARK  133  A    between atoms: _303  and  _304
REMARK  134  A    between atoms: _304  and  _305
REMARK  135  A    between atoms: _310  and  _312
REMARK  136  A    between atoms: _312  and  _313
REMARK  137  A    between atoms: _315  and  _317
REMARK  138  A    between atoms: _317  and  _318
REMARK  139  A    between atoms: _317  and  _320
REMARK  140  A    between atoms: _320  and  _321
REMARK  141  A    between atoms: _324  and  _326
REMARK  142  A    between atoms: _326  and  _327
REMARK  143  A    between atoms: _326  and  _329
REMARK  144  A    between atoms: _329  and  _330
REMARK  145  A    between atoms: _332  and  _334
REMARK  146  A    between atoms: _334  and  _335
REMARK  147  A    between atoms: _337  and  _339
REMARK  148  A    between atoms: _339  and  _340
REMARK  149  A    between atoms: _342  and  _344
REMARK  150  A    between atoms: _344  and  _345
REMARK  151  A    between atoms: _344  and  _347
REMARK  152  A    between atoms: _347  and  _348
REMARK  153  A    between atoms: _353  and  _355
REMARK  154  A    between atoms: _355  and  _356
REMARK  155  A    between atoms: _355  and  _358
REMARK  156  A    between atoms: _358  and  _359
REMARK  157  A    between atoms: _362  and  _364
REMARK  158  A    between atoms: _364  and  _365
REMARK  159  A    between atoms: _364  and  _367
REMARK  160  A    between atoms: _370  and  _372
REMARK  161  A    between atoms: _372  and  _373
REMARK  162  A    between atoms: _372  and  _375
REMARK  163  A    between atoms: _375  and  _376
REMARK  164  A    between atoms: _378  and  _380
REMARK  165  A    between atoms: _380  and  _381
REMARK  166  A    between atoms: _380  and  _383
REMARK  167  A    between atoms: _383  and  _384
REMARK  168  A    between atoms: _394  and  _396
REMARK  169  A    between atoms: _396  and  _397
REMARK  170  A    between atoms: _399  and  _401
REMARK  171  A    between atoms: _401  and  _402
REMARK  172  A    between atoms: _401  and  _404
REMARK  173  A    between atoms: _404  and  _405
REMARK  174  A    between atoms: _405  and  _406
REMARK  175  A    between atoms: _409  and  _411
REMARK  176  A    between atoms: _411  and  _412
REMARK  177  A    between atoms: _414  and  _416
REMARK  178  A    between atoms: _416  and  _417
REMARK  179  A    between atoms: _416  and  _419
REMARK  180  A    between atoms: _419  and  _420
REMARK  181  A    between atoms: _421  and  _423
REMARK  182  A    between atoms: _423  and  _424
REMARK  183  A    between atoms: _427  and  _429
REMARK  184  A    between atoms: _429  and  _430
REMARK  185  A    between atoms: _429  and  _432
REMARK  186  A    between atoms: _432  and  _433
REMARK  187  A    between atoms: _433  and  _434
REMARK  188  A    between atoms: _434  and  _435
REMARK  189  A    between atoms: _444  and  _446
REMARK  190  A    between atoms: _446  and  _447
REMARK  191  A    between atoms: _446  and  _449
REMARK  192  A    between atoms: _449  and  _450
REMARK  193  A    between atoms: _450  and  _451
REMARK  194  A    between atoms: _451  and  _452
REMARK  195  A    between atoms: _452  and  _453
REMARK  196  A    between atoms: _457  and  _459
REMARK  197  A    between atoms: _459  and  _460
REMARK  198  A    between atoms: _459  and  _462
REMARK  199  A    between atoms: _462  and  _463
REMARK  200  A    between atoms: _468  and  _469
REMARK  201  A    between atoms: _471  and  _473
REMARK  202  A    between atoms: _473  and  _474
REMARK  203  A    between atoms: _476  and  _478
REMARK  204  A    between atoms: _478  and  _479
REMARK  205  A    between atoms: _478  and  _481
REMARK  206  A    between atoms: _481  and  _482
REMARK  207  A    between atoms: _485  and  _487
REMARK  208  A    between atoms: _487  and  _488
REMARK  209  A    between atoms: _487  and  _490
REMARK  210  A    between atoms: _490  and  _491
REMARK  211  A    between atoms: _496  and  _497
REMARK  212  A    between atoms: _499  and  _501
REMARK  213  A    between atoms: _501  and  _502
REMARK  214  A    between atoms: _501  and  _504
REMARK  215  A    between atoms: _504  and  _505
REMARK                            x       y       z     vdW  Elec       q    Type
REMARK                         _______ _______ _______ _____ _____    ______ ____
ROOT
ATOM      1  O   HOH     1      -8.888   3.425  25.071  0.00  0.00    +0.000 OA
ENDROOT
TORSDOF 0
REMARK  Name = ../refined-set-2016/2vvv/2vvv_pocket.pdb
REMARK  215 active torsions:
REMARK  status: ('A' for Active; 'I' for Inactive)
REMARK    1  A    between atoms: _1  and  _5
REMARK    2  A    between atoms: _5  and  _6
REMARK    3  A    between atoms: _5  and  _8
REMARK    4  A    between atoms: _8  and  _9
REMARK    5  A    between atoms: _12  and  _14
REMARK    6  A    between atoms: _14  and  _15
REMARK    7  A    between atoms: _14  and  _17
REMARK    8  A    between atoms: _20  and  _22
REMARK    9  A    between atoms: _22  and  _23
REMARK   10  A    between atoms: _22  and  _25
REMARK   11  A    between atoms: _25  and  _26
REMARK   12  A    between atoms: _31  and  _33
REMARK   13  A    between atoms: _33  and  _34
REMARK   14  A    between atoms: _33  and  _36
REMARK   15  A    between atoms: _36  and  _37
REMARK   16  A    between atoms: _37  and  _38
REMARK   17  A    between atoms: _43  and  _45
REMARK   18  A    between atoms: _45  and  _46
REMARK   19  A    between atoms: _45  and  _48
REMARK   20  A    between atoms: _48  and  _49
REMARK   21  A    between atoms: _52  and  _54
REMARK   22  A    between atoms: _54  and  _55
REMARK   23  A    between atoms: _54  and  _57
REMARK   24  A    between atoms: _57  and  _58
REMARK   25  A    between atoms: _58  and  _59
REMARK   26  A    between atoms: _59  and  _60
REMARK   27  A    between atoms: _60  and  _61
REMARK   28  A    between atoms: _65  and  _67
REMARK   29  A    between atoms: _67  and  _68
REMARK   30  A    between atoms: _67  and  _70
REMARK   31  A    between atoms: _70  and  _71
REMARK   32  A    between atoms: _71  and  _72
REMARK   33  A    between atoms: _75  and  _77
REMARK   34  A    between atoms: _77  and  _78
REMARK   35  A    between atoms: _77  and  _80
REMARK   36  A    between atoms: _80  and  _81
REMARK   37  A    between atoms: _84  and  _86
REMARK   38  A    between atoms: _86  and  _87
REMARK   39  A    between atoms: _86  and  _89
REMARK   40  A    between atoms: _89  and  _90
REMARK   41  A    between atoms: _95  and  _96
REMARK   42  A    between atoms: _98  and  _100
REMARK   43  A    between atoms: _100  and  _101
REMARK   44  A    between atoms: _100  and  _103
REMARK   45  A    between atoms: _103  and  _104
REMARK   46  A    between atoms: _107  and  _109
REMARK   47  A    between atoms: _109  and  _110
REMARK   48  A    between atoms: _109  and  _112
REMARK   49  A    between atoms: _112  and  _113
REMARK   50  A    between atoms: _116  and  _118
REMARK   51  A    between atoms: _118  and  _119
REMARK   52  A    between atoms: _118  and  _121
REMARK   53  A    between atoms: _124  and  _126
REMARK   54  A    between atoms: _126  and  _127
REMARK   55  A    between atoms: _126  and  _129
REMARK   56  A    between atoms: _129  and  _130
REMARK   57  A    between atoms: _130  and  _131
REMARK   58  A    between atoms: _131  and  _132
REMARK   59  A    between atoms: _141  and  _143
REMARK   60  A    between atoms: _143  and  _144
REMARK   61  A    between atoms: _143  and  _146
REMARK   62  A    between atoms: _146  and  _147
REMARK   63  A    between atoms: _147  and  _148
REMARK   64  A    between atoms: _151  and  _153
REMARK   65  A    between atoms: _153  and  _154
REMARK   66  A    between atoms: _153  and  _156
REMARK   67  A    between atoms: _156  and  _157
REMARK   68  A    between atoms: _157  and  _158
REMARK   69  A    between atoms: _158  and  _159
REMARK   70  A    between atoms: _159  and  _160
REMARK   71  A    between atoms: _164  and  _166
REMARK   72  A    between atoms: _166  and  _167
REMARK   73  A    between atoms: _166  and  _169
REMARK   74  A    between atoms: _172  and  _174
REMARK   75  A    between atoms: _174  and  _175
REMARK   76  A    between atoms: _174  and  _177
REMARK   77  A    between atoms: _177  and  _178
REMARK   78  A    between atoms: _180  and  _182
REMARK   79  A    between atoms: _182  and  _183
REMARK   80  A    between atoms: _182  and  _185
REMARK   81  A    between atoms: _185  and  _186
REMARK   82  A    between atoms: _188  and  _190
REMARK   83  A    between atoms: _190  and  _191
REMARK   84  A    between atoms: _190  and  _193
REMARK   85  A    between atoms: _193  and  _194
REMARK   86  A    between atoms: _200  and  _202
REMARK   87  A    between atoms: _202  and  _203
REMARK   88  A    between atoms: _202  and  _205
REMARK   89  A    between atoms: _205  and  _206
REMARK   90  A    between atoms: _209  and  _211
REMARK   91  A    between atoms: _211  and  _212
REMARK   92  A    between atoms: _211  and  _214
REMARK   93  A    between atoms: _214  and  _215
REMARK   94  A    between atoms: _218  and  _220
REMARK   95  A    between atoms: _220  and  _221
REMARK   96  A    between atoms: _220  and  _223
REMARK   97  A    between atoms: _223  and  _224
REMARK   98  A    between atoms: _227  and  _229
REMARK   99  A    between atoms: _229  and  _230
REMARK  100  A    between atoms: _229  and  _232
REMARK  101  A    between atoms: _232  and  _233
REMARK  102  A    between atoms: _233  and  _234
REMARK  103  A    between atoms: _236  and  _238
REMARK  104  A    between atoms: _238  and  _239
REMARK  105  A    between atoms: _238  and  _241
REMARK  106  A    between atoms: _241  and  _242
REMARK  107  A    between atoms: _248  and  _250
REMARK  108  A    between atoms: _250  and  _251
REMARK  109  A    between atoms: _250  and  _253
REMARK  110  A    between atoms: _255  and  _257
REMARK  111  A    between atoms: _257  and  _258
REMARK  112  A    between atoms: _261  and  _263
REMARK  113  A    between atoms: _263  and  _264
REMARK  114  A    between atoms: _266  and  _268
REMARK  115  A    between atoms: _268  and  _269
REMARK  116  A    between atoms: _268  and  _271
REMARK  117  A    between atoms: _271  and  _272
REMARK  118  A    between atoms: _272  and  _273
REMARK  119  A    between atoms: _276  and  _278
REMARK  120  A    between atoms: _278  and  _279
REMARK  121  A    between atoms: _278  and  _281
REMARK  122  A    between atoms: _281  and  _282
REMARK  123  A    between atoms: _285  and  _287
REMARK  124  A    between atoms: _287  and  _288
REMARK  125  A    between atoms: _291  and  _293
REMARK  126  A    between atoms: _293  and  _294
REMARK  127  A    between atoms: _293  and  _296
REMARK  128  A    between atoms: _296  and  _297
REMARK  129  A    between atoms: _297  and  _420
REMARK  130  A    between atoms: _298  and  _300
REMARK  131  A    between atoms: _300  and  _301
REMARK  132  A    between atoms: _300  and  _303
REMARK  133  A    between atoms: _303  and  _304
REMARK  134  A    between atoms: _304  and  _305
REMARK  135  A    between atoms: _310  and  _312
REMARK  136  A    between atoms: _312  and  _313
REMARK  137  A    between atoms: _315  and  _317
REMARK  138  A    between atoms: _317  and  _318
REMARK  139  A    between atoms: _317  and  _320
REMARK  140  A    between atoms: _320  and  _321
REMARK  141  A    between atoms: _324  and  _326
REMARK  142  A    between atoms: _326  and  _327
REMARK  143  A    between atoms: _326  and  _329
REMARK  144  A    between atoms: _329  and  _330
REMARK  145  A    between atoms: _332  and  _334
REMARK  146  A    between atoms: _334  and  _335
REMARK  147  A    between atoms: _337  and  _339
REMARK  148  A    between atoms: _339  and  _340
REMARK  149  A    between atoms: _342  and  _344
REMARK  150  A    between atoms: _344  and  _345
REMARK  151  A    between atoms: _344  and  _347
REMARK  152  A    between atoms: _347  and  _348
REMARK  153  A    between atoms: _353  and  _355
REMARK  154  A    between atoms: _355  and  _356
REMARK  155  A    between atoms: _355  and  _358
REMARK  156  A    between atoms: _358  and  _359
REMARK  157  A    between atoms: _362  and  _364
REMARK  158  A    between atoms: _364  and  _365
REMARK  159  A    between atoms: _364  and  _367
REMARK  160  A    between atoms: _370  and  _372
REMARK  161  A    between atoms: _372  and  _373
REMARK  162  A    between atoms: _372  and  _375
REMARK  163  A    between atoms: _375  and  _376
REMARK  164  A    between atoms: _378  and  _380
REMARK  165  A    between atoms: _380  and  _381
REMARK  166  A    between atoms: _380  and  _383
REMARK  167  A    between atoms: _383  and  _384
REMARK  168  A    between atoms: _394  and  _396
REMARK  169  A    between atoms: _396  and  _397
REMARK  170  A    between atoms: _399  and  _401
REMARK  171  A    between atoms: _401  and  _402
REMARK  172  A    between atoms: _401  and  _404
REMARK  173  A    between atoms: _404  and  _405
REMARK  174  A    between atoms: _405  and  _406
REMARK  175  A    between atoms: _409  and  _411
REMARK  176  A    between atoms: _411  and  _412
REMARK  177  A    between atoms: _414  and  _416
REMARK  178  A    between atoms: _416  and  _417
REMARK  179  A    between atoms: _416  and  _419
REMARK  180  A    between atoms: _419  and  _420
REMARK  181  A    between atoms: _421  and  _423
REMARK  182  A    between atoms: _423  and  _424
REMARK  183  A    between atoms: _427  and  _429
REMARK  184  A    between atoms: _429  and  _430
REMARK  185  A    between atoms: _429  and  _432
REMARK  186  A    between atoms: _432  and  _433
REMARK  187  A    between atoms: _433  and  _434
REMARK  188  A    between atoms: _434  and  _435
REMARK  189  A    between atoms: _444  and  _446
REMARK  190  A    between atoms: _446  and  _447
REMARK  191  A    between atoms: _446  and  _449
REMARK  192  A    between atoms: _449  and  _450
REMARK  193  A    between atoms: _450  and  _451
REMARK  194  A    between atoms: _451  and  _452
REMARK  195  A    between atoms: _452  and  _453
REMARK  196  A    between atoms: _457  and  _459
REMARK  197  A    between atoms: _459  and  _460
REMARK  198  A    between atoms: _459  and  _462
REMARK  199  A    between atoms: _462  and  _463
REMARK  200  A    between atoms: _468  and  _469
REMARK  201  A    between atoms: _471  and  _473
REMARK  202  A    between atoms: _473  and  _474
REMARK  203  A    between atoms: _476  and  _478
REMARK  204  A    between atoms: _478  and  _479
REMARK  205  A    between atoms: _478  and  _481
REMARK  206  A    between atoms: _481  and  _482
REMARK  207  A    between atoms: _485  and  _487
REMARK  208  A    between atoms: _487  and  _488
REMARK  209  A    between atoms: _487  and  _490
REMARK  210  A    between atoms: _490  and  _491
REMARK  211  A    between atoms: _496  and  _497
REMARK  212  A    between atoms: _499  and  _501
REMARK  213  A    between atoms: _501  and  _502
REMARK  214  A    between atoms: _501  and  _504
REMARK  215  A    between atoms: _504  and  _505
REMARK                            x       y       z     vdW  Elec       q    Type
REMARK                         _______ _______ _______ _____ _____    ______ ____
ROOT
ATOM      1  O   HOH     1     -12.726   8.931  22.741  0.00  0.00    +0.000 OA
ENDROOT
TORSDOF 0
REMARK  Name = ../refined-set-2016/2vvv/2vvv_pocket.pdb
REMARK  215 active torsions:
REMARK  status: ('A' for Active; 'I' for Inactive)
REMARK    1  A    between atoms: _1  and  _5
REMARK    2  A    between atoms: _5  and  _6
REMARK    3  A    between atoms: _5  and  _8
REMARK    4  A    between atoms: _8  and  _9
REMARK    5  A    between atoms: _12  and  _14
REMARK    6  A    between atoms: _14  and  _15
REMARK    7  A    between atoms: _14  and  _17
REMARK    8  A    between atoms: _20  and  _22
REMARK    9  A    between atoms: _22  and  _23
REMARK   10  A    between atoms: _22  and  _25
REMARK   11  A    between atoms: _25  and  _26
REMARK   12  A    between atoms: _31  and  _33
REMARK   13  A    between atoms: _33  and  _34
REMARK   14  A    between atoms: _33  and  _36
REMARK   15  A    between atoms: _36  and  _37
REMARK   16  A    between atoms: _37  and  _38
REMARK   17  A    between atoms: _43  and  _45
REMARK   18  A    between atoms: _45  and  _46
REMARK   19  A    between atoms: _45  and  _48
REMARK   20  A    between atoms: _48  and  _49
REMARK   21  A    between atoms: _52  and  _54
REMARK   22  A    between atoms: _54  and  _55
REMARK   23  A    between atoms: _54  and  _57
REMARK   24  A    between atoms: _57  and  _58
REMARK   25  A    between atoms: _58  and  _59
REMARK   26  A    between atoms: _59  and  _60
REMARK   27  A    between atoms: _60  and  _61
REMARK   28  A    between atoms: _65  and  _67
REMARK   29  A    between atoms: _67  and  _68
REMARK   30  A    between atoms: _67  and  _70
REMARK   31  A    between atoms: _70  and  _71
REMARK   32  A    between atoms: _71  and  _72
REMARK   33  A    between atoms: _75  and  _77
REMARK   34  A    between atoms: _77  and  _78
REMARK   35  A    between atoms: _77  and  _80
REMARK   36  A    between atoms: _80  and  _81
REMARK   37  A    between atoms: _84  and  _86
REMARK   38  A    between atoms: _86  and  _87
REMARK   39  A    between atoms: _86  and  _89
REMARK   40  A    between atoms: _89  and  _90
REMARK   41  A    between atoms: _95  and  _96
REMARK   42  A    between atoms: _98  and  _100
REMARK   43  A    between atoms: _100  and  _101
REMARK   44  A    between atoms: _100  and  _103
REMARK   45  A    between atoms: _103  and  _104
REMARK   46  A    between atoms: _107  and  _109
REMARK   47  A    between atoms: _109  and  _110
REMARK   48  A    between atoms: _109  and  _112
REMARK   49  A    between atoms: _112  and  _113
REMARK   50  A    between atoms: _116  and  _118
REMARK   51  A    between atoms: _118  and  _119
REMARK   52  A    between atoms: _118  and  _121
REMARK   53  A    between atoms: _124  and  _126
REMARK   54  A    between atoms: _126  and  _127
REMARK   55  A    between atoms: _126  and  _129
REMARK   56  A    between atoms: _129  and  _130
REMARK   57  A    between atoms: _130  and  _131
REMARK   58  A    between atoms: _131  and  _132
REMARK   59  A    between atoms: _141  and  _143
REMARK   60  A    between atoms: _143  and  _144
REMARK   61  A    between atoms: _143  and  _146
REMARK   62  A    between atoms: _146  and  _147
REMARK   63  A    between atoms: _147  and  _148
REMARK   64  A    between atoms: _151  and  _153
REMARK   65  A    between atoms: _153  and  _154
REMARK   66  A    between atoms: _153  and  _156
REMARK   67  A    between atoms: _156  and  _157
REMARK   68  A    between atoms: _157  and  _158
REMARK   69  A    between atoms: _158  and  _159
REMARK   70  A    between atoms: _159  and  _160
REMARK   71  A    between atoms: _164  and  _166
REMARK   72  A    between atoms: _166  and  _167
REMARK   73  A    between atoms: _166  and  _169
REMARK   74  A    between atoms: _172  and  _174
REMARK   75  A    between atoms: _174  and  _175
REMARK   76  A    between atoms: _174  and  _177
REMARK   77  A    between atoms: _177  and  _178
REMARK   78  A    between atoms: _180  and  _182
REMARK   79  A    between atoms: _182  and  _183
REMARK   80  A    between atoms: _182  and  _185
REMARK   81  A    between atoms: _185  and  _186
REMARK   82  A    between atoms: _188  and  _190
REMARK   83  A    between atoms: _190  and  _191
REMARK   84  A    between atoms: _190  and  _193
REMARK   85  A    between atoms: _193  and  _194
REMARK   86  A    between atoms: _200  and  _202
REMARK   87  A    between atoms: _202  and  _203
REMARK   88  A    between atoms: _202  and  _205
REMARK   89  A    between atoms: _205  and  _206
REMARK   90  A    between atoms: _209  and  _211
REMARK   91  A    between atoms: _211  and  _212
REMARK   92  A    between atoms: _211  and  _214
REMARK   93  A    between atoms: _214  and  _215
REMARK   94  A    between atoms: _218  and  _220
REMARK   95  A    between atoms: _220  and  _221
REMARK   96  A    between atoms: _220  and  _223
REMARK   97  A    between atoms: _223  and  _224
REMARK   98  A    between atoms: _227  and  _229
REMARK   99  A    between atoms: _229  and  _230
REMARK  100  A    between atoms: _229  and  _232
REMARK  101  A    between atoms: _232  and  _233
REMARK  102  A    between atoms: _233  and  _234
REMARK  103  A    between atoms: _236  and  _238
REMARK  104  A    between atoms: _238  and  _239
REMARK  105  A    between atoms: _238  and  _241
REMARK  106  A    between atoms: _241  and  _242
REMARK  107  A    between atoms: _248  and  _250
REMARK  108  A    between atoms: _250  and  _251
REMARK  109  A    between atoms: _250  and  _253
REMARK  110  A    between atoms: _255  and  _257
REMARK  111  A    between atoms: _257  and  _258
REMARK  112  A    between atoms: _261  and  _263
REMARK  113  A    between atoms: _263  and  _264
REMARK  114  A    between atoms: _266  and  _268
REMARK  115  A    between atoms: _268  and  _269
REMARK  116  A    between atoms: _268  and  _271
REMARK  117  A    between atoms: _271  and  _272
REMARK  118  A    between atoms: _272  and  _273
REMARK  119  A    between atoms: _276  and  _278
REMARK  120  A    between atoms: _278  and  _279
REMARK  121  A    between atoms: _278  and  _281
REMARK  122  A    between atoms: _281  and  _282
REMARK  123  A    between atoms: _285  and  _287
REMARK  124  A    between atoms: _287  and  _288
REMARK  125  A    between atoms: _291  and  _293
REMARK  126  A    between atoms: _293  and  _294
REMARK  127  A    between atoms: _293  and  _296
REMARK  128  A    between atoms: _296  and  _297
REMARK  129  A    between atoms: _297  and  _420
REMARK  130  A    between atoms: _298  and  _300
REMARK  131  A    between atoms: _300  and  _301
REMARK  132  A    between atoms: _300  and  _303
REMARK  133  A    between atoms: _303  and  _304
REMARK  134  A    between atoms: _304  and  _305
REMARK  135  A    between atoms: _310  and  _312
REMARK  136  A    between atoms: _312  and  _313
REMARK  137  A    between atoms: _315  and  _317
REMARK  138  A    between atoms: _317  and  _318
REMARK  139  A    between atoms: _317  and  _320
REMARK  140  A    between atoms: _320  and  _321
REMARK  141  A    between atoms: _324  and  _326
REMARK  142  A    between atoms: _326  and  _327
REMARK  143  A    between atoms: _326  and  _329
REMARK  144  A    between atoms: _329  and  _330
REMARK  145  A    between atoms: _332  and  _334
REMARK  146  A    between atoms: _334  and  _335
REMARK  147  A    between atoms: _337  and  _339
REMARK  148  A    between atoms: _339  and  _340
REMARK  149  A    between atoms: _342  and  _344
REMARK  150  A    between atoms: _344  and  _345
REMARK  151  A    between atoms: _344  and  _347
REMARK  152  A    between atoms: _347  and  _348
REMARK  153  A    between atoms: _353  and  _355
REMARK  154  A    between atoms: _355  and  _356
REMARK  155  A    between atoms: _355  and  _358
REMARK  156  A    between atoms: _358  and  _359
REMARK  157  A    between atoms: _362  and  _364
REMARK  158  A    between atoms: _364  and  _365
REMARK  159  A    between atoms: _364  and  _367
REMARK  160  A    between atoms: _370  and  _372
REMARK  161  A    between atoms: _372  and  _373
REMARK  162  A    between atoms: _372  and  _375
REMARK  163  A    between atoms: _375  and  _376
REMARK  164  A    between atoms: _378  and  _380
REMARK  165  A    between atoms: _380  and  _381
REMARK  166  A    between atoms: _380  and  _383
REMARK  167  A    between atoms: _383  and  _384
REMARK  168  A    between atoms: _394  and  _396
REMARK  169  A    between atoms: _396  and  _397
REMARK  170  A    between atoms: _399  and  _401
REMARK  171  A    between atoms: _401  and  _402
REMARK  172  A    between atoms: _401  and  _404
REMARK  173  A    between atoms: _404  and  _405
REMARK  174  A    between atoms: _405  and  _406
REMARK  175  A    between atoms: _409  and  _411
REMARK  176  A    between atoms: _411  and  _412
REMARK  177  A    between atoms: _414  and  _416
REMARK  178  A    between atoms: _416  and  _417
REMARK  179  A    between atoms: _416  and  _419
REMARK  180  A    between atoms: _419  and  _420
REMARK  181  A    between atoms: _421  and  _423
REMARK  182  A    between atoms: _423  and  _424
REMARK  183  A    between atoms: _427  and  _429
REMARK  184  A    between atoms: _429  and  _430
REMARK  185  A    between atoms: _429  and  _432
REMARK  186  A    between atoms: _432  and  _433
REMARK  187  A    between atoms: _433  and  _434
REMARK  188  A    between atoms: _434  and  _435
REMARK  189  A    between atoms: _444  and  _446
REMARK  190  A    between atoms: _446  and  _447
REMARK  191  A    between atoms: _446  and  _449
REMARK  192  A    between atoms: _449  and  _450
REMARK  193  A    between atoms: _450  and  _451
REMARK  194  A    between atoms: _451  and  _452
REMARK  195  A    between atoms: _452  and  _453
REMARK  196  A    between atoms: _457  and  _459
REMARK  197  A    between atoms: _459  and  _460
REMARK  198  A    between atoms: _459  and  _462
REMARK  199  A    between atoms: _462  and  _463
REMARK  200  A    between atoms: _468  and  _469
REMARK  201  A    between atoms: _471  and  _473
REMARK  202  A    between atoms: _473  and  _474
REMARK  203  A    between atoms: _476  and  _478
REMARK  204  A    between atoms: _478  and  _479
REMARK  205  A    between atoms: _478  and  _481
REMARK  206  A    between atoms: _481  and  _482
REMARK  207  A    between atoms: _485  and  _487
REMARK  208  A    between atoms: _487  and  _488
REMARK  209  A    between atoms: _487  and  _490
REMARK  210  A    between atoms: _490  and  _491
REMARK  211  A    between atoms: _496  and  _497
REMARK  212  A    between atoms: _499  and  _501
REMARK  213  A    between atoms: _501  and  _502
REMARK  214  A    between atoms: _501  and  _504
REMARK  215  A    between atoms: _504  and  _505
REMARK                            x       y       z     vdW  Elec       q    Type
REMARK                         _______ _______ _______ _____ _____    ______ ____
ROOT
ATOM      1  O   HOH     1      -8.629  14.542  24.825  0.00  0.00    +0.000 OA
ENDROOT
TORSDOF 0
REMARK  Name = ../refined-set-2016/2vvv/2vvv_pocket.pdb
REMARK  215 active torsions:
REMARK  status: ('A' for Active; 'I' for Inactive)
REMARK    1  A    between atoms: _1  and  _5
REMARK    2  A    between atoms: _5  and  _6
REMARK    3  A    between atoms: _5  and  _8
REMARK    4  A    between atoms: _8  and  _9
REMARK    5  A    between atoms: _12  and  _14
REMARK    6  A    between atoms: _14  and  _15
REMARK    7  A    between atoms: _14  and  _17
REMARK    8  A    between atoms: _20  and  _22
REMARK    9  A    between atoms: _22  and  _23
REMARK   10  A    between atoms: _22  and  _25
REMARK   11  A    between atoms: _25  and  _26
REMARK   12  A    between atoms: _31  and  _33
REMARK   13  A    between atoms: _33  and  _34
REMARK   14  A    between atoms: _33  and  _36
REMARK   15  A    between atoms: _36  and  _37
REMARK   16  A    between atoms: _37  and  _38
REMARK   17  A    between atoms: _43  and  _45
REMARK   18  A    between atoms: _45  and  _46
REMARK   19  A    between atoms: _45  and  _48
REMARK   20  A    between atoms: _48  and  _49
REMARK   21  A    between atoms: _52  and  _54
REMARK   22  A    between atoms: _54  and  _55
REMARK   23  A    between atoms: _54  and  _57
REMARK   24  A    between atoms: _57  and  _58
REMARK   25  A    between atoms: _58  and  _59
REMARK   26  A    between atoms: _59  and  _60
REMARK   27  A    between atoms: _60  and  _61
REMARK   28  A    between atoms: _65  and  _67
REMARK   29  A    between atoms: _67  and  _68
REMARK   30  A    between atoms: _67  and  _70
REMARK   31  A    between atoms: _70  and  _71
REMARK   32  A    between atoms: _71  and  _72
REMARK   33  A    between atoms: _75  and  _77
REMARK   34  A    between atoms: _77  and  _78
REMARK   35  A    between atoms: _77  and  _80
REMARK   36  A    between atoms: _80  and  _81
REMARK   37  A    between atoms: _84  and  _86
REMARK   38  A    between atoms: _86  and  _87
REMARK   39  A    between atoms: _86  and  _89
REMARK   40  A    between atoms: _89  and  _90
REMARK   41  A    between atoms: _95  and  _96
REMARK   42  A    between atoms: _98  and  _100
REMARK   43  A    between atoms: _100  and  _101
REMARK   44  A    between atoms: _100  and  _103
REMARK   45  A    between atoms: _103  and  _104
REMARK   46  A    between atoms: _107  and  _109
REMARK   47  A    between atoms: _109  and  _110
REMARK   48  A    between atoms: _109  and  _112
REMARK   49  A    between atoms: _112  and  _113
REMARK   50  A    between atoms: _116  and  _118
REMARK   51  A    between atoms: _118  and  _119
REMARK   52  A    between atoms: _118  and  _121
REMARK   53  A    between atoms: _124  and  _126
REMARK   54  A    between atoms: _126  and  _127
REMARK   55  A    between atoms: _126  and  _129
REMARK   56  A    between atoms: _129  and  _130
REMARK   57  A    between atoms: _130  and  _131
REMARK   58  A    between atoms: _131  and  _132
REMARK   59  A    between atoms: _141  and  _143
REMARK   60  A    between atoms: _143  and  _144
REMARK   61  A    between atoms: _143  and  _146
REMARK   62  A    between atoms: _146  and  _147
REMARK   63  A    between atoms: _147  and  _148
REMARK   64  A    between atoms: _151  and  _153
REMARK   65  A    between atoms: _153  and  _154
REMARK   66  A    between atoms: _153  and  _156
REMARK   67  A    between atoms: _156  and  _157
REMARK   68  A    between atoms: _157  and  _158
REMARK   69  A    between atoms: _158  and  _159
REMARK   70  A    between atoms: _159  and  _160
REMARK   71  A    between atoms: _164  and  _166
REMARK   72  A    between atoms: _166  and  _167
REMARK   73  A    between atoms: _166  and  _169
REMARK   74  A    between atoms: _172  and  _174
REMARK   75  A    between atoms: _174  and  _175
REMARK   76  A    between atoms: _174  and  _177
REMARK   77  A    between atoms: _177  and  _178
REMARK   78  A    between atoms: _180  and  _182
REMARK   79  A    between atoms: _182  and  _183
REMARK   80  A    between atoms: _182  and  _185
REMARK   81  A    between atoms: _185  and  _186
REMARK   82  A    between atoms: _188  and  _190
REMARK   83  A    between atoms: _190  and  _191
REMARK   84  A    between atoms: _190  and  _193
REMARK   85  A    between atoms: _193  and  _194
REMARK   86  A    between atoms: _200  and  _202
REMARK   87  A    between atoms: _202  and  _203
REMARK   88  A    between atoms: _202  and  _205
REMARK   89  A    between atoms: _205  and  _206
REMARK   90  A    between atoms: _209  and  _211
REMARK   91  A    between atoms: _211  and  _212
REMARK   92  A    between atoms: _211  and  _214
REMARK   93  A    between atoms: _214  and  _215
REMARK   94  A    between atoms: _218  and  _220
REMARK   95  A    between atoms: _220  and  _221
REMARK   96  A    between atoms: _220  and  _223
REMARK   97  A    between atoms: _223  and  _224
REMARK   98  A    between atoms: _227  and  _229
REMARK   99  A    between atoms: _229  and  _230
REMARK  100  A    between atoms: _229  and  _232
REMARK  101  A    between atoms: _232  and  _233
REMARK  102  A    between atoms: _233  and  _234
REMARK  103  A    between atoms: _236  and  _238
REMARK  104  A    between atoms: _238  and  _239
REMARK  105  A    between atoms: _238  and  _241
REMARK  106  A    between atoms: _241  and  _242
REMARK  107  A    between atoms: _248  and  _250
REMARK  108  A    between atoms: _250  and  _251
REMARK  109  A    between atoms: _250  and  _253
REMARK  110  A    between atoms: _255  and  _257
REMARK  111  A    between atoms: _257  and  _258
REMARK  112  A    between atoms: _261  and  _263
REMARK  113  A    between atoms: _263  and  _264
REMARK  114  A    between atoms: _266  and  _268
REMARK  115  A    between atoms: _268  and  _269
REMARK  116  A    between atoms: _268  and  _271
REMARK  117  A    between atoms: _271  and  _272
REMARK  118  A    between atoms: _272  and  _273
REMARK  119  A    between atoms: _276  and  _278
REMARK  120  A    between atoms: _278  and  _279
REMARK  121  A    between atoms: _278  and  _281
REMARK  122  A    between atoms: _281  and  _282
REMARK  123  A    between atoms: _285  and  _287
REMARK  124  A    between atoms: _287  and  _288
REMARK  125  A    between atoms: _291  and  _293
REMARK  126  A    between atoms: _293  and  _294
REMARK  127  A    between atoms: _293  and  _296
REMARK  128  A    between atoms: _296  and  _297
REMARK  129  A    between atoms: _297  and  _420
REMARK  130  A    between atoms: _298  and  _300
REMARK  131  A    between atoms: _300  and  _301
REMARK  132  A    between atoms: _300  and  _303
REMARK  133  A    between atoms: _303  and  _304
REMARK  134  A    between atoms: _304  and  _305
REMARK  135  A    between atoms: _310  and  _312
REMARK  136  A    between atoms: _312  and  _313
REMARK  137  A    between atoms: _315  and  _317
REMARK  138  A    between atoms: _317  and  _318
REMARK  139  A    between atoms: _317  and  _320
REMARK  140  A    between atoms: _320  and  _321
REMARK  141  A    between atoms: _324  and  _326
REMARK  142  A    between atoms: _326  and  _327
REMARK  143  A    between atoms: _326  and  _329
REMARK  144  A    between atoms: _329  and  _330
REMARK  145  A    between atoms: _332  and  _334
REMARK  146  A    between atoms: _334  and  _335
REMARK  147  A    between atoms: _337  and  _339
REMARK  148  A    between atoms: _339  and  _340
REMARK  149  A    between atoms: _342  and  _344
REMARK  150  A    between atoms: _344  and  _345
REMARK  151  A    between atoms: _344  and  _347
REMARK  152  A    between atoms: _347  and  _348
REMARK  153  A    between atoms: _353  and  _355
REMARK  154  A    between atoms: _355  and  _356
REMARK  155  A    between atoms: _355  and  _358
REMARK  156  A    between atoms: _358  and  _359
REMARK  157  A    between atoms: _362  and  _364
REMARK  158  A    between atoms: _364  and  _365
REMARK  159  A    between atoms: _364  and  _367
REMARK  160  A    between atoms: _370  and  _372
REMARK  161  A    between atoms: _372  and  _373
REMARK  162  A    between atoms: _372  and  _375
REMARK  163  A    between atoms: _375  and  _376
REMARK  164  A    between atoms: _378  and  _380
REMARK  165  A    between atoms: _380  and  _381
REMARK  166  A    between atoms: _380  and  _383
REMARK  167  A    between atoms: _383  and  _384
REMARK  168  A    between atoms: _394  and  _396
REMARK  169  A    between atoms: _396  and  _397
REMARK  170  A    between atoms: _399  and  _401
REMARK  171  A    between atoms: _401  and  _402
REMARK  172  A    between atoms: _401  and  _404
REMARK  173  A    between atoms: _404  and  _405
REMARK  174  A    between atoms: _405  and  _406
REMARK  175  A    between atoms: _409  and  _411
REMARK  176  A    between atoms: _411  and  _412
REMARK  177  A    between atoms: _414  and  _416
REMARK  178  A    between atoms: _416  and  _417
REMARK  179  A    between atoms: _416  and  _419
REMARK  180  A    between atoms: _419  and  _420
REMARK  181  A    between atoms: _421  and  _423
REMARK  182  A    between atoms: _423  and  _424
REMARK  183  A    between atoms: _427  and  _429
REMARK  184  A    between atoms: _429  and  _430
REMARK  185  A    between atoms: _429  and  _432
REMARK  186  A    between atoms: _432  and  _433
REMARK  187  A    between atoms: _433  and  _434
REMARK  188  A    between atoms: _434  and  _435
REMARK  189  A    between atoms: _444  and  _446
REMARK  190  A    between atoms: _446  and  _447
REMARK  191  A    between atoms: _446  and  _449
REMARK  192  A    between atoms: _449  and  _450
REMARK  193  A    between atoms: _450  and  _451
REMARK  194  A    between atoms: _451  and  _452
REMARK  195  A    between atoms: _452  and  _453
REMARK  196  A    between atoms: _457  and  _459
REMARK  197  A    between atoms: _459  and  _460
REMARK  198  A    between atoms: _459  and  _462
REMARK  199  A    between atoms: _462  and  _463
REMARK  200  A    between atoms: _468  and  _469
REMARK  201  A    between atoms: _471  and  _473
REMARK  202  A    between atoms: _473  and  _474
REMARK  203  A    between atoms: _476  and  _478
REMARK  204  A    between atoms: _478  and  _479
REMARK  205  A    between atoms: _478  and  _481
REMARK  206  A    between atoms: _481  and  _482
REMARK  207  A    between atoms: _485  and  _487
REMARK  208  A    between atoms: _487  and  _488
REMARK  209  A    between atoms: _487  and  _490
REMARK  210  A    between atoms: _490  and  _491
REMARK  211  A    between atoms: _496  and  _497
REMARK  212  A    between atoms: _499  and  _501
REMARK  213  A    between atoms: _501  and  _502
REMARK  214  A    between atoms: _501  and  _504
REMARK  215  A    between atoms: _504  and  _505
REMARK                            x       y       z     vdW  Elec       q    Type
REMARK                         _______ _______ _______ _____ _____    ______ ____
ROOT
ATOM      1  O   HOH     1     -11.796  11.187  23.753  0.00  0.00    +0.000 OA
ENDROOT
TORSDOF 0
REMARK  Name = ../refined-set-2016/2vvv/2vvv_pocket.pdb
REMARK  215 active torsions:
REMARK  status: ('A' for Active; 'I' for Inactive)
REMARK    1  A    between atoms: _1  and  _5
REMARK    2  A    between atoms: _5  and  _6
REMARK    3  A    between atoms: _5  and  _8
REMARK    4  A    between atoms: _8  and  _9
REMARK    5  A    between atoms: _12  and  _14
REMARK    6  A    between atoms: _14  and  _15
REMARK    7  A    between atoms: _14  and  _17
REMARK    8  A    between atoms: _20  and  _22
REMARK    9  A    between atoms: _22  and  _23
REMARK   10  A    between atoms: _22  and  _25
REMARK   11  A    between atoms: _25  and  _26
REMARK   12  A    between atoms: _31  and  _33
REMARK   13  A    between atoms: _33  and  _34
REMARK   14  A    between atoms: _33  and  _36
REMARK   15  A    between atoms: _36  and  _37
REMARK   16  A    between atoms: _37  and  _38
REMARK   17  A    between atoms: _43  and  _45
REMARK   18  A    between atoms: _45  and  _46
REMARK   19  A    between atoms: _45  and  _48
REMARK   20  A    between atoms: _48  and  _49
REMARK   21  A    between atoms: _52  and  _54
REMARK   22  A    between atoms: _54  and  _55
REMARK   23  A    between atoms: _54  and  _57
REMARK   24  A    between atoms: _57  and  _58
REMARK   25  A    between atoms: _58  and  _59
REMARK   26  A    between atoms: _59  and  _60
REMARK   27  A    between atoms: _60  and  _61
REMARK   28  A    between atoms: _65  and  _67
REMARK   29  A    between atoms: _67  and  _68
REMARK   30  A    between atoms: _67  and  _70
REMARK   31  A    between atoms: _70  and  _71
REMARK   32  A    between atoms: _71  and  _72
REMARK   33  A    between atoms: _75  and  _77
REMARK   34  A    between atoms: _77  and  _78
REMARK   35  A    between atoms: _77  and  _80
REMARK   36  A    between atoms: _80  and  _81
REMARK   37  A    between atoms: _84  and  _86
REMARK   38  A    between atoms: _86  and  _87
REMARK   39  A    between atoms: _86  and  _89
REMARK   40  A    between atoms: _89  and  _90
REMARK   41  A    between atoms: _95  and  _96
REMARK   42  A    between atoms: _98  and  _100
REMARK   43  A    between atoms: _100  and  _101
REMARK   44  A    between atoms: _100  and  _103
REMARK   45  A    between atoms: _103  and  _104
REMARK   46  A    between atoms: _107  and  _109
REMARK   47  A    between atoms: _109  and  _110
REMARK   48  A    between atoms: _109  and  _112
REMARK   49  A    between atoms: _112  and  _113
REMARK   50  A    between atoms: _116  and  _118
REMARK   51  A    between atoms: _118  and  _119
REMARK   52  A    between atoms: _118  and  _121
REMARK   53  A    between atoms: _124  and  _126
REMARK   54  A    between atoms: _126  and  _127
REMARK   55  A    between atoms: _126  and  _129
REMARK   56  A    between atoms: _129  and  _130
REMARK   57  A    between atoms: _130  and  _131
REMARK   58  A    between atoms: _131  and  _132
REMARK   59  A    between atoms: _141  and  _143
REMARK   60  A    between atoms: _143  and  _144
REMARK   61  A    between atoms: _143  and  _146
REMARK   62  A    between atoms: _146  and  _147
REMARK   63  A    between atoms: _147  and  _148
REMARK   64  A    between atoms: _151  and  _153
REMARK   65  A    between atoms: _153  and  _154
REMARK   66  A    between atoms: _153  and  _156
REMARK   67  A    between atoms: _156  and  _157
REMARK   68  A    between atoms: _157  and  _158
REMARK   69  A    between atoms: _158  and  _159
REMARK   70  A    between atoms: _159  and  _160
REMARK   71  A    between atoms: _164  and  _166
REMARK   72  A    between atoms: _166  and  _167
REMARK   73  A    between atoms: _166  and  _169
REMARK   74  A    between atoms: _172  and  _174
REMARK   75  A    between atoms: _174  and  _175
REMARK   76  A    between atoms: _174  and  _177
REMARK   77  A    between atoms: _177  and  _178
REMARK   78  A    between atoms: _180  and  _182
REMARK   79  A    between atoms: _182  and  _183
REMARK   80  A    between atoms: _182  and  _185
REMARK   81  A    between atoms: _185  and  _186
REMARK   82  A    between atoms: _188  and  _190
REMARK   83  A    between atoms: _190  and  _191
REMARK   84  A    between atoms: _190  and  _193
REMARK   85  A    between atoms: _193  and  _194
REMARK   86  A    between atoms: _200  and  _202
REMARK   87  A    between atoms: _202  and  _203
REMARK   88  A    between atoms: _202  and  _205
REMARK   89  A    between atoms: _205  and  _206
REMARK   90  A    between atoms: _209  and  _211
REMARK   91  A    between atoms: _211  and  _212
REMARK   92  A    between atoms: _211  and  _214
REMARK   93  A    between atoms: _214  and  _215
REMARK   94  A    between atoms: _218  and  _220
REMARK   95  A    between atoms: _220  and  _221
REMARK   96  A    between atoms: _220  and  _223
REMARK   97  A    between atoms: _223  and  _224
REMARK   98  A    between atoms: _227  and  _229
REMARK   99  A    between atoms: _229  and  _230
REMARK  100  A    between atoms: _229  and  _232
REMARK  101  A    between atoms: _232  and  _233
REMARK  102  A    between atoms: _233  and  _234
REMARK  103  A    between atoms: _236  and  _238
REMARK  104  A    between atoms: _238  and  _239
REMARK  105  A    between atoms: _238  and  _241
REMARK  106  A    between atoms: _241  and  _242
REMARK  107  A    between atoms: _248  and  _250
REMARK  108  A    between atoms: _250  and  _251
REMARK  109  A    between atoms: _250  and  _253
REMARK  110  A    between atoms: _255  and  _257
REMARK  111  A    between atoms: _257  and  _258
REMARK  112  A    between atoms: _261  and  _263
REMARK  113  A    between atoms: _263  and  _264
REMARK  114  A    between atoms: _266  and  _268
REMARK  115  A    between atoms: _268  and  _269
REMARK  116  A    between atoms: _268  and  _271
REMARK  117  A    between atoms: _271  and  _272
REMARK  118  A    between atoms: _272  and  _273
REMARK  119  A    between atoms: _276  and  _278
REMARK  120  A    between atoms: _278  and  _279
REMARK  121  A    between atoms: _278  and  _281
REMARK  122  A    between atoms: _281  and  _282
REMARK  123  A    between atoms: _285  and  _287
REMARK  124  A    between atoms: _287  and  _288
REMARK  125  A    between atoms: _291  and  _293
REMARK  126  A    between atoms: _293  and  _294
REMARK  127  A    between atoms: _293  and  _296
REMARK  128  A    between atoms: _296  and  _297
REMARK  129  A    between atoms: _297  and  _420
REMARK  130  A    between atoms: _298  and  _300
REMARK  131  A    between atoms: _300  and  _301
REMARK  132  A    between atoms: _300  and  _303
REMARK  133  A    between atoms: _303  and  _304
REMARK  134  A    between atoms: _304  and  _305
REMARK  135  A    between atoms: _310  and  _312
REMARK  136  A    between atoms: _312  and  _313
REMARK  137  A    between atoms: _315  and  _317
REMARK  138  A    between atoms: _317  and  _318
REMARK  139  A    between atoms: _317  and  _320
REMARK  140  A    between atoms: _320  and  _321
REMARK  141  A    between atoms: _324  and  _326
REMARK  142  A    between atoms: _326  and  _327
REMARK  143  A    between atoms: _326  and  _329
REMARK  144  A    between atoms: _329  and  _330
REMARK  145  A    between atoms: _332  and  _334
REMARK  146  A    between atoms: _334  and  _335
REMARK  147  A    between atoms: _337  and  _339
REMARK  148  A    between atoms: _339  and  _340
REMARK  149  A    between atoms: _342  and  _344
REMARK  150  A    between atoms: _344  and  _345
REMARK  151  A    between atoms: _344  and  _347
REMARK  152  A    between atoms: _347  and  _348
REMARK  153  A    between atoms: _353  and  _355
REMARK  154  A    between atoms: _355  and  _356
REMARK  155  A    between atoms: _355  and  _358
REMARK  156  A    between atoms: _358  and  _359
REMARK  157  A    between atoms: _362  and  _364
REMARK  158  A    between atoms: _364  and  _365
REMARK  159  A    between atoms: _364  and  _367
REMARK  160  A    between atoms: _370  and  _372
REMARK  161  A    between atoms: _372  and  _373
REMARK  162  A    between atoms: _372  and  _375
REMARK  163  A    between atoms: _375  and  _376
REMARK  164  A    between atoms: _378  and  _380
REMARK  165  A    between atoms: _380  and  _381
REMARK  166  A    between atoms: _380  and  _383
REMARK  167  A    between atoms: _383  and  _384
REMARK  168  A    between atoms: _394  and  _396
REMARK  169  A    between atoms: _396  and  _397
REMARK  170  A    between atoms: _399  and  _401
REMARK  171  A    between atoms: _401  and  _402
REMARK  172  A    between atoms: _401  and  _404
REMARK  173  A    between atoms: _404  and  _405
REMARK  174  A    between atoms: _405  and  _406
REMARK  175  A    between atoms: _409  and  _411
REMARK  176  A    between atoms: _411  and  _412
REMARK  177  A    between atoms: _414  and  _416
REMARK  178  A    between atoms: _416  and  _417
REMARK  179  A    between atoms: _416  and  _419
REMARK  180  A    between atoms: _419  and  _420
REMARK  181  A    between atoms: _421  and  _423
REMARK  182  A    between atoms: _423  and  _424
REMARK  183  A    between atoms: _427  and  _429
REMARK  184  A    between atoms: _429  and  _430
REMARK  185  A    between atoms: _429  and  _432
REMARK  186  A    between atoms: _432  and  _433
REMARK  187  A    between atoms: _433  and  _434
REMARK  188  A    between atoms: _434  and  _435
REMARK  189  A    between atoms: _444  and  _446
REMARK  190  A    between atoms: _446  and  _447
REMARK  191  A    between atoms: _446  and  _449
REMARK  192  A    between atoms: _449  and  _450
REMARK  193  A    between atoms: _450  and  _451
REMARK  194  A    between atoms: _451  and  _452
REMARK  195  A    between atoms: _452  and  _453
REMARK  196  A    between atoms: _457  and  _459
REMARK  197  A    between atoms: _459  and  _460
REMARK  198  A    between atoms: _459  and  _462
REMARK  199  A    between atoms: _462  and  _463
REMARK  200  A    between atoms: _468  and  _469
REMARK  201  A    between atoms: _471  and  _473
REMARK  202  A    between atoms: _473  and  _474
REMARK  203  A    between atoms: _476  and  _478
REMARK  204  A    between atoms: _478  and  _479
REMARK  205  A    between atoms: _478  and  _481
REMARK  206  A    between atoms: _481  and  _482
REMARK  207  A    between atoms: _485  and  _487
REMARK  208  A    between atoms: _487  and  _488
REMARK  209  A    between atoms: _487  and  _490
REMARK  210  A    between atoms: _490  and  _491
REMARK  211  A    between atoms: _496  and  _497
REMARK  212  A    between atoms: _499  and  _501
REMARK  213  A    between atoms: _501  and  _502
REMARK  214  A    between atoms: _501  and  _504
REMARK  215  A    between atoms: _504  and  _505
REMARK                            x       y       z     vdW  Elec       q    Type
REMARK                         _______ _______ _______ _____ _____    ______ ____
ROOT
ATOM      1  O   HOH     1      -6.418   6.119  32.687  0.00  0.00    +0.000 OA
ENDROOT
TORSDOF 0
REMARK  Name = ../refined-set-2016/2vvv/2vvv_pocket.pdb
REMARK  215 active torsions:
REMARK  status: ('A' for Active; 'I' for Inactive)
REMARK    1  A    between atoms: _1  and  _5
REMARK    2  A    between atoms: _5  and  _6
REMARK    3  A    between atoms: _5  and  _8
REMARK    4  A    between atoms: _8  and  _9
REMARK    5  A    between atoms: _12  and  _14
REMARK    6  A    between atoms: _14  and  _15
REMARK    7  A    between atoms: _14  and  _17
REMARK    8  A    between atoms: _20  and  _22
REMARK    9  A    between atoms: _22  and  _23
REMARK   10  A    between atoms: _22  and  _25
REMARK   11  A    between atoms: _25  and  _26
REMARK   12  A    between atoms: _31  and  _33
REMARK   13  A    between atoms: _33  and  _34
REMARK   14  A    between atoms: _33  and  _36
REMARK   15  A    between atoms: _36  and  _37
REMARK   16  A    between atoms: _37  and  _38
REMARK   17  A    between atoms: _43  and  _45
REMARK   18  A    between atoms: _45  and  _46
REMARK   19  A    between atoms: _45  and  _48
REMARK   20  A    between atoms: _48  and  _49
REMARK   21  A    between atoms: _52  and  _54
REMARK   22  A    between atoms: _54  and  _55
REMARK   23  A    between atoms: _54  and  _57
REMARK   24  A    between atoms: _57  and  _58
REMARK   25  A    between atoms: _58  and  _59
REMARK   26  A    between atoms: _59  and  _60
REMARK   27  A    between atoms: _60  and  _61
REMARK   28  A    between atoms: _65  and  _67
REMARK   29  A    between atoms: _67  and  _68
REMARK   30  A    between atoms: _67  and  _70
REMARK   31  A    between atoms: _70  and  _71
REMARK   32  A    between atoms: _71  and  _72
REMARK   33  A    between atoms: _75  and  _77
REMARK   34  A    between atoms: _77  and  _78
REMARK   35  A    between atoms: _77  and  _80
REMARK   36  A    between atoms: _80  and  _81
REMARK   37  A    between atoms: _84  and  _86
REMARK   38  A    between atoms: _86  and  _87
REMARK   39  A    between atoms: _86  and  _89
REMARK   40  A    between atoms: _89  and  _90
REMARK   41  A    between atoms: _95  and  _96
REMARK   42  A    between atoms: _98  and  _100
REMARK   43  A    between atoms: _100  and  _101
REMARK   44  A    between atoms: _100  and  _103
REMARK   45  A    between atoms: _103  and  _104
REMARK   46  A    between atoms: _107  and  _109
REMARK   47  A    between atoms: _109  and  _110
REMARK   48  A    between atoms: _109  and  _112
REMARK   49  A    between atoms: _112  and  _113
REMARK   50  A    between atoms: _116  and  _118
REMARK   51  A    between atoms: _118  and  _119
REMARK   52  A    between atoms: _118  and  _121
REMARK   53  A    between atoms: _124  and  _126
REMARK   54  A    between atoms: _126  and  _127
REMARK   55  A    between atoms: _126  and  _129
REMARK   56  A    between atoms: _129  and  _130
REMARK   57  A    between atoms: _130  and  _131
REMARK   58  A    between atoms: _131  and  _132
REMARK   59  A    between atoms: _141  and  _143
REMARK   60  A    between atoms: _143  and  _144
REMARK   61  A    between atoms: _143  and  _146
REMARK   62  A    between atoms: _146  and  _147
REMARK   63  A    between atoms: _147  and  _148
REMARK   64  A    between atoms: _151  and  _153
REMARK   65  A    between atoms: _153  and  _154
REMARK   66  A    between atoms: _153  and  _156
REMARK   67  A    between atoms: _156  and  _157
REMARK   68  A    between atoms: _157  and  _158
REMARK   69  A    between atoms: _158  and  _159
REMARK   70  A    between atoms: _159  and  _160
REMARK   71  A    between atoms: _164  and  _166
REMARK   72  A    between atoms: _166  and  _167
REMARK   73  A    between atoms: _166  and  _169
REMARK   74  A    between atoms: _172  and  _174
REMARK   75  A    between atoms: _174  and  _175
REMARK   76  A    between atoms: _174  and  _177
REMARK   77  A    between atoms: _177  and  _178
REMARK   78  A    between atoms: _180  and  _182
REMARK   79  A    between atoms: _182  and  _183
REMARK   80  A    between atoms: _182  and  _185
REMARK   81  A    between atoms: _185  and  _186
REMARK   82  A    between atoms: _188  and  _190
REMARK   83  A    between atoms: _190  and  _191
REMARK   84  A    between atoms: _190  and  _193
REMARK   85  A    between atoms: _193  and  _194
REMARK   86  A    between atoms: _200  and  _202
REMARK   87  A    between atoms: _202  and  _203
REMARK   88  A    between atoms: _202  and  _205
REMARK   89  A    between atoms: _205  and  _206
REMARK   90  A    between atoms: _209  and  _211
REMARK   91  A    between atoms: _211  and  _212
REMARK   92  A    between atoms: _211  and  _214
REMARK   93  A    between atoms: _214  and  _215
REMARK   94  A    between atoms: _218  and  _220
REMARK   95  A    between atoms: _220  and  _221
REMARK   96  A    between atoms: _220  and  _223
REMARK   97  A    between atoms: _223  and  _224
REMARK   98  A    between atoms: _227  and  _229
REMARK   99  A    between atoms: _229  and  _230
REMARK  100  A    between atoms: _229  and  _232
REMARK  101  A    between atoms: _232  and  _233
REMARK  102  A    between atoms: _233  and  _234
REMARK  103  A    between atoms: _236  and  _238
REMARK  104  A    between atoms: _238  and  _239
REMARK  105  A    between atoms: _238  and  _241
REMARK  106  A    between atoms: _241  and  _242
REMARK  107  A    between atoms: _248  and  _250
REMARK  108  A    between atoms: _250  and  _251
REMARK  109  A    between atoms: _250  and  _253
REMARK  110  A    between atoms: _255  and  _257
REMARK  111  A    between atoms: _257  and  _258
REMARK  112  A    between atoms: _261  and  _263
REMARK  113  A    between atoms: _263  and  _264
REMARK  114  A    between atoms: _266  and  _268
REMARK  115  A    between atoms: _268  and  _269
REMARK  116  A    between atoms: _268  and  _271
REMARK  117  A    between atoms: _271  and  _272
REMARK  118  A    between atoms: _272  and  _273
REMARK  119  A    between atoms: _276  and  _278
REMARK  120  A    between atoms: _278  and  _279
REMARK  121  A    between atoms: _278  and  _281
REMARK  122  A    between atoms: _281  and  _282
REMARK  123  A    between atoms: _285  and  _287
REMARK  124  A    between atoms: _287  and  _288
REMARK  125  A    between atoms: _291  and  _293
REMARK  126  A    between atoms: _293  and  _294
REMARK  127  A    between atoms: _293  and  _296
REMARK  128  A    between atoms: _296  and  _297
REMARK  129  A    between atoms: _297  and  _420
REMARK  130  A    between atoms: _298  and  _300
REMARK  131  A    between atoms: _300  and  _301
REMARK  132  A    between atoms: _300  and  _303
REMARK  133  A    between atoms: _303  and  _304
REMARK  134  A    between atoms: _304  and  _305
REMARK  135  A    between atoms: _310  and  _312
REMARK  136  A    between atoms: _312  and  _313
REMARK  137  A    between atoms: _315  and  _317
REMARK  138  A    between atoms: _317  and  _318
REMARK  139  A    between atoms: _317  and  _320
REMARK  140  A    between atoms: _320  and  _321
REMARK  141  A    between atoms: _324  and  _326
REMARK  142  A    between atoms: _326  and  _327
REMARK  143  A    between atoms: _326  and  _329
REMARK  144  A    between atoms: _329  and  _330
REMARK  145  A    between atoms: _332  and  _334
REMARK  146  A    between atoms: _334  and  _335
REMARK  147  A    between atoms: _337  and  _339
REMARK  148  A    between atoms: _339  and  _340
REMARK  149  A    between atoms: _342  and  _344
REMARK  150  A    between atoms: _344  and  _345
REMARK  151  A    between atoms: _344  and  _347
REMARK  152  A    between atoms: _347  and  _348
REMARK  153  A    between atoms: _353  and  _355
REMARK  154  A    between atoms: _355  and  _356
REMARK  155  A    between atoms: _355  and  _358
REMARK  156  A    between atoms: _358  and  _359
REMARK  157  A    between atoms: _362  and  _364
REMARK  158  A    between atoms: _364  and  _365
REMARK  159  A    between atoms: _364  and  _367
REMARK  160  A    between atoms: _370  and  _372
REMARK  161  A    between atoms: _372  and  _373
REMARK  162  A    between atoms: _372  and  _375
REMARK  163  A    between atoms: _375  and  _376
REMARK  164  A    between atoms: _378  and  _380
REMARK  165  A    between atoms: _380  and  _381
REMARK  166  A    between atoms: _380  and  _383
REMARK  167  A    between atoms: _383  and  _384
REMARK  168  A    between atoms: _394  and  _396
REMARK  169  A    between atoms: _396  and  _397
REMARK  170  A    between atoms: _399  and  _401
REMARK  171  A    between atoms: _401  and  _402
REMARK  172  A    between atoms: _401  and  _404
REMARK  173  A    between atoms: _404  and  _405
REMARK  174  A    between atoms: _405  and  _406
REMARK  175  A    between atoms: _409  and  _411
REMARK  176  A    between atoms: _411  and  _412
REMARK  177  A    between atoms: _414  and  _416
REMARK  178  A    between atoms: _416  and  _417
REMARK  179  A    between atoms: _416  and  _419
REMARK  180  A    between atoms: _419  and  _420
REMARK  181  A    between atoms: _421  and  _423
REMARK  182  A    between atoms: _423  and  _424
REMARK  183  A    between atoms: _427  and  _429
REMARK  184  A    between atoms: _429  and  _430
REMARK  185  A    between atoms: _429  and  _432
REMARK  186  A    between atoms: _432  and  _433
REMARK  187  A    between atoms: _433  and  _434
REMARK  188  A    between atoms: _434  and  _435
REMARK  189  A    between atoms: _444  and  _446
REMARK  190  A    between atoms: _446  and  _447
REMARK  191  A    between atoms: _446  and  _449
REMARK  192  A    between atoms: _449  and  _450
REMARK  193  A    between atoms: _450  and  _451
REMARK  194  A    between atoms: _451  and  _452
REMARK  195  A    between atoms: _452  and  _453
REMARK  196  A    between atoms: _457  and  _459
REMARK  197  A    between atoms: _459  and  _460
REMARK  198  A    between atoms: _459  and  _462
REMARK  199  A    between atoms: _462  and  _463
REMARK  200  A    between atoms: _468  and  _469
REMARK  201  A    between atoms: _471  and  _473
REMARK  202  A    between atoms: _473  and  _474
REMARK  203  A    between atoms: _476  and  _478
REMARK  204  A    between atoms: _478  and  _479
REMARK  205  A    between atoms: _478  and  _481
REMARK  206  A    between atoms: _481  and  _482
REMARK  207  A    between atoms: _485  and  _487
REMARK  208  A    between atoms: _487  and  _488
REMARK  209  A    between atoms: _487  and  _490
REMARK  210  A    between atoms: _490  and  _491
REMARK  211  A    between atoms: _496  and  _497
REMARK  212  A    between atoms: _499  and  _501
REMARK  213  A    between atoms: _501  and  _502
REMARK  214  A    between atoms: _501  and  _504
REMARK  215  A    between atoms: _504  and  _505
REMARK                            x       y       z     vdW  Elec       q    Type
REMARK                         _______ _______ _______ _____ _____    ______ ____
ROOT
ATOM      1  O   HOH     1      -7.636   5.247  26.677  0.00  0.00    +0.000 OA
ENDROOT
TORSDOF 0
REMARK  Name = ../refined-set-2016/2vvv/2vvv_pocket.pdb
REMARK  215 active torsions:
REMARK  status: ('A' for Active; 'I' for Inactive)
REMARK    1  A    between atoms: _1  and  _5
REMARK    2  A    between atoms: _5  and  _6
REMARK    3  A    between atoms: _5  and  _8
REMARK    4  A    between atoms: _8  and  _9
REMARK    5  A    between atoms: _12  and  _14
REMARK    6  A    between atoms: _14  and  _15
REMARK    7  A    between atoms: _14  and  _17
REMARK    8  A    between atoms: _20  and  _22
REMARK    9  A    between atoms: _22  and  _23
REMARK   10  A    between atoms: _22  and  _25
REMARK   11  A    between atoms: _25  and  _26
REMARK   12  A    between atoms: _31  and  _33
REMARK   13  A    between atoms: _33  and  _34
REMARK   14  A    between atoms: _33  and  _36
REMARK   15  A    between atoms: _36  and  _37
REMARK   16  A    between atoms: _37  and  _38
REMARK   17  A    between atoms: _43  and  _45
REMARK   18  A    between atoms: _45  and  _46
REMARK   19  A    between atoms: _45  and  _48
REMARK   20  A    between atoms: _48  and  _49
REMARK   21  A    between atoms: _52  and  _54
REMARK   22  A    between atoms: _54  and  _55
REMARK   23  A    between atoms: _54  and  _57
REMARK   24  A    between atoms: _57  and  _58
REMARK   25  A    between atoms: _58  and  _59
REMARK   26  A    between atoms: _59  and  _60
REMARK   27  A    between atoms: _60  and  _61
REMARK   28  A    between atoms: _65  and  _67
REMARK   29  A    between atoms: _67  and  _68
REMARK   30  A    between atoms: _67  and  _70
REMARK   31  A    between atoms: _70  and  _71
REMARK   32  A    between atoms: _71  and  _72
REMARK   33  A    between atoms: _75  and  _77
REMARK   34  A    between atoms: _77  and  _78
REMARK   35  A    between atoms: _77  and  _80
REMARK   36  A    between atoms: _80  and  _81
REMARK   37  A    between atoms: _84  and  _86
REMARK   38  A    between atoms: _86  and  _87
REMARK   39  A    between atoms: _86  and  _89
REMARK   40  A    between atoms: _89  and  _90
REMARK   41  A    between atoms: _95  and  _96
REMARK   42  A    between atoms: _98  and  _100
REMARK   43  A    between atoms: _100  and  _101
REMARK   44  A    between atoms: _100  and  _103
REMARK   45  A    between atoms: _103  and  _104
REMARK   46  A    between atoms: _107  and  _109
REMARK   47  A    between atoms: _109  and  _110
REMARK   48  A    between atoms: _109  and  _112
REMARK   49  A    between atoms: _112  and  _113
REMARK   50  A    between atoms: _116  and  _118
REMARK   51  A    between atoms: _118  and  _119
REMARK   52  A    between atoms: _118  and  _121
REMARK   53  A    between atoms: _124  and  _126
REMARK   54  A    between atoms: _126  and  _127
REMARK   55  A    between atoms: _126  and  _129
REMARK   56  A    between atoms: _129  and  _130
REMARK   57  A    between atoms: _130  and  _131
REMARK   58  A    between atoms: _131  and  _132
REMARK   59  A    between atoms: _141  and  _143
REMARK   60  A    between atoms: _143  and  _144
REMARK   61  A    between atoms: _143  and  _146
REMARK   62  A    between atoms: _146  and  _147
REMARK   63  A    between atoms: _147  and  _148
REMARK   64  A    between atoms: _151  and  _153
REMARK   65  A    between atoms: _153  and  _154
REMARK   66  A    between atoms: _153  and  _156
REMARK   67  A    between atoms: _156  and  _157
REMARK   68  A    between atoms: _157  and  _158
REMARK   69  A    between atoms: _158  and  _159
REMARK   70  A    between atoms: _159  and  _160
REMARK   71  A    between atoms: _164  and  _166
REMARK   72  A    between atoms: _166  and  _167
REMARK   73  A    between atoms: _166  and  _169
REMARK   74  A    between atoms: _172  and  _174
REMARK   75  A    between atoms: _174  and  _175
REMARK   76  A    between atoms: _174  and  _177
REMARK   77  A    between atoms: _177  and  _178
REMARK   78  A    between atoms: _180  and  _182
REMARK   79  A    between atoms: _182  and  _183
REMARK   80  A    between atoms: _182  and  _185
REMARK   81  A    between atoms: _185  and  _186
REMARK   82  A    between atoms: _188  and  _190
REMARK   83  A    between atoms: _190  and  _191
REMARK   84  A    between atoms: _190  and  _193
REMARK   85  A    between atoms: _193  and  _194
REMARK   86  A    between atoms: _200  and  _202
REMARK   87  A    between atoms: _202  and  _203
REMARK   88  A    between atoms: _202  and  _205
REMARK   89  A    between atoms: _205  and  _206
REMARK   90  A    between atoms: _209  and  _211
REMARK   91  A    between atoms: _211  and  _212
REMARK   92  A    between atoms: _211  and  _214
REMARK   93  A    between atoms: _214  and  _215
REMARK   94  A    between atoms: _218  and  _220
REMARK   95  A    between atoms: _220  and  _221
REMARK   96  A    between atoms: _220  and  _223
REMARK   97  A    between atoms: _223  and  _224
REMARK   98  A    between atoms: _227  and  _229
REMARK   99  A    between atoms: _229  and  _230
REMARK  100  A    between atoms: _229  and  _232
REMARK  101  A    between atoms: _232  and  _233
REMARK  102  A    between atoms: _233  and  _234
REMARK  103  A    between atoms: _236  and  _238
REMARK  104  A    between atoms: _238  and  _239
REMARK  105  A    between atoms: _238  and  _241
REMARK  106  A    between atoms: _241  and  _242
REMARK  107  A    between atoms: _248  and  _250
REMARK  108  A    between atoms: _250  and  _251
REMARK  109  A    between atoms: _250  and  _253
REMARK  110  A    between atoms: _255  and  _257
REMARK  111  A    between atoms: _257  and  _258
REMARK  112  A    between atoms: _261  and  _263
REMARK  113  A    between atoms: _263  and  _264
REMARK  114  A    between atoms: _266  and  _268
REMARK  115  A    between atoms: _268  and  _269
REMARK  116  A    between atoms: _268  and  _271
REMARK  117  A    between atoms: _271  and  _272
REMARK  118  A    between atoms: _272  and  _273
REMARK  119  A    between atoms: _276  and  _278
REMARK  120  A    between atoms: _278  and  _279
REMARK  121  A    between atoms: _278  and  _281
REMARK  122  A    between atoms: _281  and  _282
REMARK  123  A    between atoms: _285  and  _287
REMARK  124  A    between atoms: _287  and  _288
REMARK  125  A    between atoms: _291  and  _293
REMARK  126  A    between atoms: _293  and  _294
REMARK  127  A    between atoms: _293  and  _296
REMARK  128  A    between atoms: _296  and  _297
REMARK  129  A    between atoms: _297  and  _420
REMARK  130  A    between atoms: _298  and  _300
REMARK  131  A    between atoms: _300  and  _301
REMARK  132  A    between atoms: _300  and  _303
REMARK  133  A    between atoms: _303  and  _304
REMARK  134  A    between atoms: _304  and  _305
REMARK  135  A    between atoms: _310  and  _312
REMARK  136  A    between atoms: _312  and  _313
REMARK  137  A    between atoms: _315  and  _317
REMARK  138  A    between atoms: _317  and  _318
REMARK  139  A    between atoms: _317  and  _320
REMARK  140  A    between atoms: _320  and  _321
REMARK  141  A    between atoms: _324  and  _326
REMARK  142  A    between atoms: _326  and  _327
REMARK  143  A    between atoms: _326  and  _329
REMARK  144  A    between atoms: _329  and  _330
REMARK  145  A    between atoms: _332  and  _334
REMARK  146  A    between atoms: _334  and  _335
REMARK  147  A    between atoms: _337  and  _339
REMARK  148  A    between atoms: _339  and  _340
REMARK  149  A    between atoms: _342  and  _344
REMARK  150  A    between atoms: _344  and  _345
REMARK  151  A    between atoms: _344  and  _347
REMARK  152  A    between atoms: _347  and  _348
REMARK  153  A    between atoms: _353  and  _355
REMARK  154  A    between atoms: _355  and  _356
REMARK  155  A    between atoms: _355  and  _358
REMARK  156  A    between atoms: _358  and  _359
REMARK  157  A    between atoms: _362  and  _364
REMARK  158  A    between atoms: _364  and  _365
REMARK  159  A    between atoms: _364  and  _367
REMARK  160  A    between atoms: _370  and  _372
REMARK  161  A    between atoms: _372  and  _373
REMARK  162  A    between atoms: _372  and  _375
REMARK  163  A    between atoms: _375  and  _376
REMARK  164  A    between atoms: _378  and  _380
REMARK  165  A    between atoms: _380  and  _381
REMARK  166  A    between atoms: _380  and  _383
REMARK  167  A    between atoms: _383  and  _384
REMARK  168  A    between atoms: _394  and  _396
REMARK  169  A    between atoms: _396  and  _397
REMARK  170  A    between atoms: _399  and  _401
REMARK  171  A    between atoms: _401  and  _402
REMARK  172  A    between atoms: _401  and  _404
REMARK  173  A    between atoms: _404  and  _405
REMARK  174  A    between atoms: _405  and  _406
REMARK  175  A    between atoms: _409  and  _411
REMARK  176  A    between atoms: _411  and  _412
REMARK  177  A    between atoms: _414  and  _416
REMARK  178  A    between atoms: _416  and  _417
REMARK  179  A    between atoms: _416  and  _419
REMARK  180  A    between atoms: _419  and  _420
REMARK  181  A    between atoms: _421  and  _423
REMARK  182  A    between atoms: _423  and  _424
REMARK  183  A    between atoms: _427  and  _429
REMARK  184  A    between atoms: _429  and  _430
REMARK  185  A    between atoms: _429  and  _432
REMARK  186  A    between atoms: _432  and  _433
REMARK  187  A    between atoms: _433  and  _434
REMARK  188  A    between atoms: _434  and  _435
REMARK  189  A    between atoms: _444  and  _446
REMARK  190  A    between atoms: _446  and  _447
REMARK  191  A    between atoms: _446  and  _449
REMARK  192  A    between atoms: _449  and  _450
REMARK  193  A    between atoms: _450  and  _451
REMARK  194  A    between atoms: _451  and  _452
REMARK  195  A    between atoms: _452  and  _453
REMARK  196  A    between atoms: _457  and  _459
REMARK  197  A    between atoms: _459  and  _460
REMARK  198  A    between atoms: _459  and  _462
REMARK  199  A    between atoms: _462  and  _463
REMARK  200  A    between atoms: _468  and  _469
REMARK  201  A    between atoms: _471  and  _473
REMARK  202  A    between atoms: _473  and  _474
REMARK  203  A    between atoms: _476  and  _478
REMARK  204  A    between atoms: _478  and  _479
REMARK  205  A    between atoms: _478  and  _481
REMARK  206  A    between atoms: _481  and  _482
REMARK  207  A    between atoms: _485  and  _487
REMARK  208  A    between atoms: _487  and  _488
REMARK  209  A    between atoms: _487  and  _490
REMARK  210  A    between atoms: _490  and  _491
REMARK  211  A    between atoms: _496  and  _497
REMARK  212  A    between atoms: _499  and  _501
REMARK  213  A    between atoms: _501  and  _502
REMARK  214  A    between atoms: _501  and  _504
REMARK  215  A    between atoms: _504  and  _505
REMARK                            x       y       z     vdW  Elec       q    Type
REMARK                         _______ _______ _______ _____ _____    ______ ____
ROOT
ATOM      1  O   HOH     1      -1.150   4.140  32.124  0.00  0.00    +0.000 OA
ENDROOT
TORSDOF 0
REMARK  Name = ../refined-set-2016/2vvv/2vvv_pocket.pdb
REMARK  215 active torsions:
REMARK  status: ('A' for Active; 'I' for Inactive)
REMARK    1  A    between atoms: _1  and  _5
REMARK    2  A    between atoms: _5  and  _6
REMARK    3  A    between atoms: _5  and  _8
REMARK    4  A    between atoms: _8  and  _9
REMARK    5  A    between atoms: _12  and  _14
REMARK    6  A    between atoms: _14  and  _15
REMARK    7  A    between atoms: _14  and  _17
REMARK    8  A    between atoms: _20  and  _22
REMARK    9  A    between atoms: _22  and  _23
REMARK   10  A    between atoms: _22  and  _25
REMARK   11  A    between atoms: _25  and  _26
REMARK   12  A    between atoms: _31  and  _33
REMARK   13  A    between atoms: _33  and  _34
REMARK   14  A    between atoms: _33  and  _36
REMARK   15  A    between atoms: _36  and  _37
REMARK   16  A    between atoms: _37  and  _38
REMARK   17  A    between atoms: _43  and  _45
REMARK   18  A    between atoms: _45  and  _46
REMARK   19  A    between atoms: _45  and  _48
REMARK   20  A    between atoms: _48  and  _49
REMARK   21  A    between atoms: _52  and  _54
REMARK   22  A    between atoms: _54  and  _55
REMARK   23  A    between atoms: _54  and  _57
REMARK   24  A    between atoms: _57  and  _58
REMARK   25  A    between atoms: _58  and  _59
REMARK   26  A    between atoms: _59  and  _60
REMARK   27  A    between atoms: _60  and  _61
REMARK   28  A    between atoms: _65  and  _67
REMARK   29  A    between atoms: _67  and  _68
REMARK   30  A    between atoms: _67  and  _70
REMARK   31  A    between atoms: _70  and  _71
REMARK   32  A    between atoms: _71  and  _72
REMARK   33  A    between atoms: _75  and  _77
REMARK   34  A    between atoms: _77  and  _78
REMARK   35  A    between atoms: _77  and  _80
REMARK   36  A    between atoms: _80  and  _81
REMARK   37  A    between atoms: _84  and  _86
REMARK   38  A    between atoms: _86  and  _87
REMARK   39  A    between atoms: _86  and  _89
REMARK   40  A    between atoms: _89  and  _90
REMARK   41  A    between atoms: _95  and  _96
REMARK   42  A    between atoms: _98  and  _100
REMARK   43  A    between atoms: _100  and  _101
REMARK   44  A    between atoms: _100  and  _103
REMARK   45  A    between atoms: _103  and  _104
REMARK   46  A    between atoms: _107  and  _109
REMARK   47  A    between atoms: _109  and  _110
REMARK   48  A    between atoms: _109  and  _112
REMARK   49  A    between atoms: _112  and  _113
REMARK   50  A    between atoms: _116  and  _118
REMARK   51  A    between atoms: _118  and  _119
REMARK   52  A    between atoms: _118  and  _121
REMARK   53  A    between atoms: _124  and  _126
REMARK   54  A    between atoms: _126  and  _127
REMARK   55  A    between atoms: _126  and  _129
REMARK   56  A    between atoms: _129  and  _130
REMARK   57  A    between atoms: _130  and  _131
REMARK   58  A    between atoms: _131  and  _132
REMARK   59  A    between atoms: _141  and  _143
REMARK   60  A    between atoms: _143  and  _144
REMARK   61  A    between atoms: _143  and  _146
REMARK   62  A    between atoms: _146  and  _147
REMARK   63  A    between atoms: _147  and  _148
REMARK   64  A    between atoms: _151  and  _153
REMARK   65  A    between atoms: _153  and  _154
REMARK   66  A    between atoms: _153  and  _156
REMARK   67  A    between atoms: _156  and  _157
REMARK   68  A    between atoms: _157  and  _158
REMARK   69  A    between atoms: _158  and  _159
REMARK   70  A    between atoms: _159  and  _160
REMARK   71  A    between atoms: _164  and  _166
REMARK   72  A    between atoms: _166  and  _167
REMARK   73  A    between atoms: _166  and  _169
REMARK   74  A    between atoms: _172  and  _174
REMARK   75  A    between atoms: _174  and  _175
REMARK   76  A    between atoms: _174  and  _177
REMARK   77  A    between atoms: _177  and  _178
REMARK   78  A    between atoms: _180  and  _182
REMARK   79  A    between atoms: _182  and  _183
REMARK   80  A    between atoms: _182  and  _185
REMARK   81  A    between atoms: _185  and  _186
REMARK   82  A    between atoms: _188  and  _190
REMARK   83  A    between atoms: _190  and  _191
REMARK   84  A    between atoms: _190  and  _193
REMARK   85  A    between atoms: _193  and  _194
REMARK   86  A    between atoms: _200  and  _202
REMARK   87  A    between atoms: _202  and  _203
REMARK   88  A    between atoms: _202  and  _205
REMARK   89  A    between atoms: _205  and  _206
REMARK   90  A    between atoms: _209  and  _211
REMARK   91  A    between atoms: _211  and  _212
REMARK   92  A    between atoms: _211  and  _214
REMARK   93  A    between atoms: _214  and  _215
REMARK   94  A    between atoms: _218  and  _220
REMARK   95  A    between atoms: _220  and  _221
REMARK   96  A    between atoms: _220  and  _223
REMARK   97  A    between atoms: _223  and  _224
REMARK   98  A    between atoms: _227  and  _229
REMARK   99  A    between atoms: _229  and  _230
REMARK  100  A    between atoms: _229  and  _232
REMARK  101  A    between atoms: _232  and  _233
REMARK  102  A    between atoms: _233  and  _234
REMARK  103  A    between atoms: _236  and  _238
REMARK  104  A    between atoms: _238  and  _239
REMARK  105  A    between atoms: _238  and  _241
REMARK  106  A    between atoms: _241  and  _242
REMARK  107  A    between atoms: _248  and  _250
REMARK  108  A    between atoms: _250  and  _251
REMARK  109  A    between atoms: _250  and  _253
REMARK  110  A    between atoms: _255  and  _257
REMARK  111  A    between atoms: _257  and  _258
REMARK  112  A    between atoms: _261  and  _263
REMARK  113  A    between atoms: _263  and  _264
REMARK  114  A    between atoms: _266  and  _268
REMARK  115  A    between atoms: _268  and  _269
REMARK  116  A    between atoms: _268  and  _271
REMARK  117  A    between atoms: _271  and  _272
REMARK  118  A    between atoms: _272  and  _273
REMARK  119  A    between atoms: _276  and  _278
REMARK  120  A    between atoms: _278  and  _279
REMARK  121  A    between atoms: _278  and  _281
REMARK  122  A    between atoms: _281  and  _282
REMARK  123  A    between atoms: _285  and  _287
REMARK  124  A    between atoms: _287  and  _288
REMARK  125  A    between atoms: _291  and  _293
REMARK  126  A    between atoms: _293  and  _294
REMARK  127  A    between atoms: _293  and  _296
REMARK  128  A    between atoms: _296  and  _297
REMARK  129  A    between atoms: _297  and  _420
REMARK  130  A    between atoms: _298  and  _300
REMARK  131  A    between atoms: _300  and  _301
REMARK  132  A    between atoms: _300  and  _303
REMARK  133  A    between atoms: _303  and  _304
REMARK  134  A    between atoms: _304  and  _305
REMARK  135  A    between atoms: _310  and  _312
REMARK  136  A    between atoms: _312  and  _313
REMARK  137  A    between atoms: _315  and  _317
REMARK  138  A    between atoms: _317  and  _318
REMARK  139  A    between atoms: _317  and  _320
REMARK  140  A    between atoms: _320  and  _321
REMARK  141  A    between atoms: _324  and  _326
REMARK  142  A    between atoms: _326  and  _327
REMARK  143  A    between atoms: _326  and  _329
REMARK  144  A    between atoms: _329  and  _330
REMARK  145  A    between atoms: _332  and  _334
REMARK  146  A    between atoms: _334  and  _335
REMARK  147  A    between atoms: _337  and  _339
REMARK  148  A    between atoms: _339  and  _340
REMARK  149  A    between atoms: _342  and  _344
REMARK  150  A    between atoms: _344  and  _345
REMARK  151  A    between atoms: _344  and  _347
REMARK  152  A    between atoms: _347  and  _348
REMARK  153  A    between atoms: _353  and  _355
REMARK  154  A    between atoms: _355  and  _356
REMARK  155  A    between atoms: _355  and  _358
REMARK  156  A    between atoms: _358  and  _359
REMARK  157  A    between atoms: _362  and  _364
REMARK  158  A    between atoms: _364  and  _365
REMARK  159  A    between atoms: _364  and  _367
REMARK  160  A    between atoms: _370  and  _372
REMARK  161  A    between atoms: _372  and  _373
REMARK  162  A    between atoms: _372  and  _375
REMARK  163  A    between atoms: _375  and  _376
REMARK  164  A    between atoms: _378  and  _380
REMARK  165  A    between atoms: _380  and  _381
REMARK  166  A    between atoms: _380  and  _383
REMARK  167  A    between atoms: _383  and  _384
REMARK  168  A    between atoms: _394  and  _396
REMARK  169  A    between atoms: _396  and  _397
REMARK  170  A    between atoms: _399  and  _401
REMARK  171  A    between atoms: _401  and  _402
REMARK  172  A    between atoms: _401  and  _404
REMARK  173  A    between atoms: _404  and  _405
REMARK  174  A    between atoms: _405  and  _406
REMARK  175  A    between atoms: _409  and  _411
REMARK  176  A    between atoms: _411  and  _412
REMARK  177  A    between atoms: _414  and  _416
REMARK  178  A    between atoms: _416  and  _417
REMARK  179  A    between atoms: _416  and  _419
REMARK  180  A    between atoms: _419  and  _420
REMARK  181  A    between atoms: _421  and  _423
REMARK  182  A    between atoms: _423  and  _424
REMARK  183  A    between atoms: _427  and  _429
REMARK  184  A    between atoms: _429  and  _430
REMARK  185  A    between atoms: _429  and  _432
REMARK  186  A    between atoms: _432  and  _433
REMARK  187  A    between atoms: _433  and  _434
REMARK  188  A    between atoms: _434  and  _435
REMARK  189  A    between atoms: _444  and  _446
REMARK  190  A    between atoms: _446  and  _447
REMARK  191  A    between atoms: _446  and  _449
REMARK  192  A    between atoms: _449  and  _450
REMARK  193  A    between atoms: _450  and  _451
REMARK  194  A    between atoms: _451  and  _452
REMARK  195  A    between atoms: _452  and  _453
REMARK  196  A    between atoms: _457  and  _459
REMARK  197  A    between atoms: _459  and  _460
REMARK  198  A    between atoms: _459  and  _462
REMARK  199  A    between atoms: _462  and  _463
REMARK  200  A    between atoms: _468  and  _469
REMARK  201  A    between atoms: _471  and  _473
REMARK  202  A    between atoms: _473  and  _474
REMARK  203  A    between atoms: _476  and  _478
REMARK  204  A    between atoms: _478  and  _479
REMARK  205  A    between atoms: _478  and  _481
REMARK  206  A    between atoms: _481  and  _482
REMARK  207  A    between atoms: _485  and  _487
REMARK  208  A    between atoms: _487  and  _488
REMARK  209  A    between atoms: _487  and  _490
REMARK  210  A    between atoms: _490  and  _491
REMARK  211  A    between atoms: _496  and  _497
REMARK  212  A    between atoms: _499  and  _501
REMARK  213  A    between atoms: _501  and  _502
REMARK  214  A    between atoms: _501  and  _504
REMARK  215  A    between atoms: _504  and  _505
REMARK                            x       y       z     vdW  Elec       q    Type
REMARK                         _______ _______ _______ _____ _____    ______ ____
ROOT
ATOM      1  O   HOH     1      -8.602   9.660  17.461  0.00  0.00    +0.000 OA
ENDROOT
TORSDOF 0
REMARK  Name = ../refined-set-2016/2vvv/2vvv_pocket.pdb
REMARK  215 active torsions:
REMARK  status: ('A' for Active; 'I' for Inactive)
REMARK    1  A    between atoms: _1  and  _5
REMARK    2  A    between atoms: _5  and  _6
REMARK    3  A    between atoms: _5  and  _8
REMARK    4  A    between atoms: _8  and  _9
REMARK    5  A    between atoms: _12  and  _14
REMARK    6  A    between atoms: _14  and  _15
REMARK    7  A    between atoms: _14  and  _17
REMARK    8  A    between atoms: _20  and  _22
REMARK    9  A    between atoms: _22  and  _23
REMARK   10  A    between atoms: _22  and  _25
REMARK   11  A    between atoms: _25  and  _26
REMARK   12  A    between atoms: _31  and  _33
REMARK   13  A    between atoms: _33  and  _34
REMARK   14  A    between atoms: _33  and  _36
REMARK   15  A    between atoms: _36  and  _37
REMARK   16  A    between atoms: _37  and  _38
REMARK   17  A    between atoms: _43  and  _45
REMARK   18  A    between atoms: _45  and  _46
REMARK   19  A    between atoms: _45  and  _48
REMARK   20  A    between atoms: _48  and  _49
REMARK   21  A    between atoms: _52  and  _54
REMARK   22  A    between atoms: _54  and  _55
REMARK   23  A    between atoms: _54  and  _57
REMARK   24  A    between atoms: _57  and  _58
REMARK   25  A    between atoms: _58  and  _59
REMARK   26  A    between atoms: _59  and  _60
REMARK   27  A    between atoms: _60  and  _61
REMARK   28  A    between atoms: _65  and  _67
REMARK   29  A    between atoms: _67  and  _68
REMARK   30  A    between atoms: _67  and  _70
REMARK   31  A    between atoms: _70  and  _71
REMARK   32  A    between atoms: _71  and  _72
REMARK   33  A    between atoms: _75  and  _77
REMARK   34  A    between atoms: _77  and  _78
REMARK   35  A    between atoms: _77  and  _80
REMARK   36  A    between atoms: _80  and  _81
REMARK   37  A    between atoms: _84  and  _86
REMARK   38  A    between atoms: _86  and  _87
REMARK   39  A    between atoms: _86  and  _89
REMARK   40  A    between atoms: _89  and  _90
REMARK   41  A    between atoms: _95  and  _96
REMARK   42  A    between atoms: _98  and  _100
REMARK   43  A    between atoms: _100  and  _101
REMARK   44  A    between atoms: _100  and  _103
REMARK   45  A    between atoms: _103  and  _104
REMARK   46  A    between atoms: _107  and  _109
REMARK   47  A    between atoms: _109  and  _110
REMARK   48  A    between atoms: _109  and  _112
REMARK   49  A    between atoms: _112  and  _113
REMARK   50  A    between atoms: _116  and  _118
REMARK   51  A    between atoms: _118  and  _119
REMARK   52  A    between atoms: _118  and  _121
REMARK   53  A    between atoms: _124  and  _126
REMARK   54  A    between atoms: _126  and  _127
REMARK   55  A    between atoms: _126  and  _129
REMARK   56  A    between atoms: _129  and  _130
REMARK   57  A    between atoms: _130  and  _131
REMARK   58  A    between atoms: _131  and  _132
REMARK   59  A    between atoms: _141  and  _143
REMARK   60  A    between atoms: _143  and  _144
REMARK   61  A    between atoms: _143  and  _146
REMARK   62  A    between atoms: _146  and  _147
REMARK   63  A    between atoms: _147  and  _148
REMARK   64  A    between atoms: _151  and  _153
REMARK   65  A    between atoms: _153  and  _154
REMARK   66  A    between atoms: _153  and  _156
REMARK   67  A    between atoms: _156  and  _157
REMARK   68  A    between atoms: _157  and  _158
REMARK   69  A    between atoms: _158  and  _159
REMARK   70  A    between atoms: _159  and  _160
REMARK   71  A    between atoms: _164  and  _166
REMARK   72  A    between atoms: _166  and  _167
REMARK   73  A    between atoms: _166  and  _169
REMARK   74  A    between atoms: _172  and  _174
REMARK   75  A    between atoms: _174  and  _175
REMARK   76  A    between atoms: _174  and  _177
REMARK   77  A    between atoms: _177  and  _178
REMARK   78  A    between atoms: _180  and  _182
REMARK   79  A    between atoms: _182  and  _183
REMARK   80  A    between atoms: _182  and  _185
REMARK   81  A    between atoms: _185  and  _186
REMARK   82  A    between atoms: _188  and  _190
REMARK   83  A    between atoms: _190  and  _191
REMARK   84  A    between atoms: _190  and  _193
REMARK   85  A    between atoms: _193  and  _194
REMARK   86  A    between atoms: _200  and  _202
REMARK   87  A    between atoms: _202  and  _203
REMARK   88  A    between atoms: _202  and  _205
REMARK   89  A    between atoms: _205  and  _206
REMARK   90  A    between atoms: _209  and  _211
REMARK   91  A    between atoms: _211  and  _212
REMARK   92  A    between atoms: _211  and  _214
REMARK   93  A    between atoms: _214  and  _215
REMARK   94  A    between atoms: _218  and  _220
REMARK   95  A    between atoms: _220  and  _221
REMARK   96  A    between atoms: _220  and  _223
REMARK   97  A    between atoms: _223  and  _224
REMARK   98  A    between atoms: _227  and  _229
REMARK   99  A    between atoms: _229  and  _230
REMARK  100  A    between atoms: _229  and  _232
REMARK  101  A    between atoms: _232  and  _233
REMARK  102  A    between atoms: _233  and  _234
REMARK  103  A    between atoms: _236  and  _238
REMARK  104  A    between atoms: _238  and  _239
REMARK  105  A    between atoms: _238  and  _241
REMARK  106  A    between atoms: _241  and  _242
REMARK  107  A    between atoms: _248  and  _250
REMARK  108  A    between atoms: _250  and  _251
REMARK  109  A    between atoms: _250  and  _253
REMARK  110  A    between atoms: _255  and  _257
REMARK  111  A    between atoms: _257  and  _258
REMARK  112  A    between atoms: _261  and  _263
REMARK  113  A    between atoms: _263  and  _264
REMARK  114  A    between atoms: _266  and  _268
REMARK  115  A    between atoms: _268  and  _269
REMARK  116  A    between atoms: _268  and  _271
REMARK  117  A    between atoms: _271  and  _272
REMARK  118  A    between atoms: _272  and  _273
REMARK  119  A    between atoms: _276  and  _278
REMARK  120  A    between atoms: _278  and  _279
REMARK  121  A    between atoms: _278  and  _281
REMARK  122  A    between atoms: _281  and  _282
REMARK  123  A    between atoms: _285  and  _287
REMARK  124  A    between atoms: _287  and  _288
REMARK  125  A    between atoms: _291  and  _293
REMARK  126  A    between atoms: _293  and  _294
REMARK  127  A    between atoms: _293  and  _296
REMARK  128  A    between atoms: _296  and  _297
REMARK  129  A    between atoms: _297  and  _420
REMARK  130  A    between atoms: _298  and  _300
REMARK  131  A    between atoms: _300  and  _301
REMARK  132  A    between atoms: _300  and  _303
REMARK  133  A    between atoms: _303  and  _304
REMARK  134  A    between atoms: _304  and  _305
REMARK  135  A    between atoms: _310  and  _312
REMARK  136  A    between atoms: _312  and  _313
REMARK  137  A    between atoms: _315  and  _317
REMARK  138  A    between atoms: _317  and  _318
REMARK  139  A    between atoms: _317  and  _320
REMARK  140  A    between atoms: _320  and  _321
REMARK  141  A    between atoms: _324  and  _326
REMARK  142  A    between atoms: _326  and  _327
REMARK  143  A    between atoms: _326  and  _329
REMARK  144  A    between atoms: _329  and  _330
REMARK  145  A    between atoms: _332  and  _334
REMARK  146  A    between atoms: _334  and  _335
REMARK  147  A    between atoms: _337  and  _339
REMARK  148  A    between atoms: _339  and  _340
REMARK  149  A    between atoms: _342  and  _344
REMARK  150  A    between atoms: _344  and  _345
REMARK  151  A    between atoms: _344  and  _347
REMARK  152  A    between atoms: _347  and  _348
REMARK  153  A    between atoms: _353  and  _355
REMARK  154  A    between atoms: _355  and  _356
REMARK  155  A    between atoms: _355  and  _358
REMARK  156  A    between atoms: _358  and  _359
REMARK  157  A    between atoms: _362  and  _364
REMARK  158  A    between atoms: _364  and  _365
REMARK  159  A    between atoms: _364  and  _367
REMARK  160  A    between atoms: _370  and  _372
REMARK  161  A    between atoms: _372  and  _373
REMARK  162  A    between atoms: _372  and  _375
REMARK  163  A    between atoms: _375  and  _376
REMARK  164  A    between atoms: _378  and  _380
REMARK  165  A    between atoms: _380  and  _381
REMARK  166  A    between atoms: _380  and  _383
REMARK  167  A    between atoms: _383  and  _384
REMARK  168  A    between atoms: _394  and  _396
REMARK  169  A    between atoms: _396  and  _397
REMARK  170  A    between atoms: _399  and  _401
REMARK  171  A    between atoms: _401  and  _402
REMARK  172  A    between atoms: _401  and  _404
REMARK  173  A    between atoms: _404  and  _405
REMARK  174  A    between atoms: _405  and  _406
REMARK  175  A    between atoms: _409  and  _411
REMARK  176  A    between atoms: _411  and  _412
REMARK  177  A    between atoms: _414  and  _416
REMARK  178  A    between atoms: _416  and  _417
REMARK  179  A    between atoms: _416  and  _419
REMARK  180  A    between atoms: _419  and  _420
REMARK  181  A    between atoms: _421  and  _423
REMARK  182  A    between atoms: _423  and  _424
REMARK  183  A    between atoms: _427  and  _429
REMARK  184  A    between atoms: _429  and  _430
REMARK  185  A    between atoms: _429  and  _432
REMARK  186  A    between atoms: _432  and  _433
REMARK  187  A    between atoms: _433  and  _434
REMARK  188  A    between atoms: _434  and  _435
REMARK  189  A    between atoms: _444  and  _446
REMARK  190  A    between atoms: _446  and  _447
REMARK  191  A    between atoms: _446  and  _449
REMARK  192  A    between atoms: _449  and  _450
REMARK  193  A    between atoms: _450  and  _451
REMARK  194  A    between atoms: _451  and  _452
REMARK  195  A    between atoms: _452  and  _453
REMARK  196  A    between atoms: _457  and  _459
REMARK  197  A    between atoms: _459  and  _460
REMARK  198  A    between atoms: _459  and  _462
REMARK  199  A    between atoms: _462  and  _463
REMARK  200  A    between atoms: _468  and  _469
REMARK  201  A    between atoms: _471  and  _473
REMARK  202  A    between atoms: _473  and  _474
REMARK  203  A    between atoms: _476  and  _478
REMARK  204  A    between atoms: _478  and  _479
REMARK  205  A    between atoms: _478  and  _481
REMARK  206  A    between atoms: _481  and  _482
REMARK  207  A    between atoms: _485  and  _487
REMARK  208  A    between atoms: _487  and  _488
REMARK  209  A    between atoms: _487  and  _490
REMARK  210  A    between atoms: _490  and  _491
REMARK  211  A    between atoms: _496  and  _497
REMARK  212  A    between atoms: _499  and  _501
REMARK  213  A    between atoms: _501  and  _502
REMARK  214  A    between atoms: _501  and  _504
REMARK  215  A    between atoms: _504  and  _505
REMARK                            x       y       z     vdW  Elec       q    Type
REMARK                         _______ _______ _______ _____ _____    ______ ____
ROOT
ATOM      1  O   HOH     1      -8.198  11.979  23.081  0.00  0.00    +0.000 OA
ENDROOT
TORSDOF 0
REMARK  Name = ../refined-set-2016/2vvv/2vvv_pocket.pdb
REMARK  215 active torsions:
REMARK  status: ('A' for Active; 'I' for Inactive)
REMARK    1  A    between atoms: _1  and  _5
REMARK    2  A    between atoms: _5  and  _6
REMARK    3  A    between atoms: _5  and  _8
REMARK    4  A    between atoms: _8  and  _9
REMARK    5  A    between atoms: _12  and  _14
REMARK    6  A    between atoms: _14  and  _15
REMARK    7  A    between atoms: _14  and  _17
REMARK    8  A    between atoms: _20  and  _22
REMARK    9  A    between atoms: _22  and  _23
REMARK   10  A    between atoms: _22  and  _25
REMARK   11  A    between atoms: _25  and  _26
REMARK   12  A    between atoms: _31  and  _33
REMARK   13  A    between atoms: _33  and  _34
REMARK   14  A    between atoms: _33  and  _36
REMARK   15  A    between atoms: _36  and  _37
REMARK   16  A    between atoms: _37  and  _38
REMARK   17  A    between atoms: _43  and  _45
REMARK   18  A    between atoms: _45  and  _46
REMARK   19  A    between atoms: _45  and  _48
REMARK   20  A    between atoms: _48  and  _49
REMARK   21  A    between atoms: _52  and  _54
REMARK   22  A    between atoms: _54  and  _55
REMARK   23  A    between atoms: _54  and  _57
REMARK   24  A    between atoms: _57  and  _58
REMARK   25  A    between atoms: _58  and  _59
REMARK   26  A    between atoms: _59  and  _60
REMARK   27  A    between atoms: _60  and  _61
REMARK   28  A    between atoms: _65  and  _67
REMARK   29  A    between atoms: _67  and  _68
REMARK   30  A    between atoms: _67  and  _70
REMARK   31  A    between atoms: _70  and  _71
REMARK   32  A    between atoms: _71  and  _72
REMARK   33  A    between atoms: _75  and  _77
REMARK   34  A    between atoms: _77  and  _78
REMARK   35  A    between atoms: _77  and  _80
REMARK   36  A    between atoms: _80  and  _81
REMARK   37  A    between atoms: _84  and  _86
REMARK   38  A    between atoms: _86  and  _87
REMARK   39  A    between atoms: _86  and  _89
REMARK   40  A    between atoms: _89  and  _90
REMARK   41  A    between atoms: _95  and  _96
REMARK   42  A    between atoms: _98  and  _100
REMARK   43  A    between atoms: _100  and  _101
REMARK   44  A    between atoms: _100  and  _103
REMARK   45  A    between atoms: _103  and  _104
REMARK   46  A    between atoms: _107  and  _109
REMARK   47  A    between atoms: _109  and  _110
REMARK   48  A    between atoms: _109  and  _112
REMARK   49  A    between atoms: _112  and  _113
REMARK   50  A    between atoms: _116  and  _118
REMARK   51  A    between atoms: _118  and  _119
REMARK   52  A    between atoms: _118  and  _121
REMARK   53  A    between atoms: _124  and  _126
REMARK   54  A    between atoms: _126  and  _127
REMARK   55  A    between atoms: _126  and  _129
REMARK   56  A    between atoms: _129  and  _130
REMARK   57  A    between atoms: _130  and  _131
REMARK   58  A    between atoms: _131  and  _132
REMARK   59  A    between atoms: _141  and  _143
REMARK   60  A    between atoms: _143  and  _144
REMARK   61  A    between atoms: _143  and  _146
REMARK   62  A    between atoms: _146  and  _147
REMARK   63  A    between atoms: _147  and  _148
REMARK   64  A    between atoms: _151  and  _153
REMARK   65  A    between atoms: _153  and  _154
REMARK   66  A    between atoms: _153  and  _156
REMARK   67  A    between atoms: _156  and  _157
REMARK   68  A    between atoms: _157  and  _158
REMARK   69  A    between atoms: _158  and  _159
REMARK   70  A    between atoms: _159  and  _160
REMARK   71  A    between atoms: _164  and  _166
REMARK   72  A    between atoms: _166  and  _167
REMARK   73  A    between atoms: _166  and  _169
REMARK   74  A    between atoms: _172  and  _174
REMARK   75  A    between atoms: _174  and  _175
REMARK   76  A    between atoms: _174  and  _177
REMARK   77  A    between atoms: _177  and  _178
REMARK   78  A    between atoms: _180  and  _182
REMARK   79  A    between atoms: _182  and  _183
REMARK   80  A    between atoms: _182  and  _185
REMARK   81  A    between atoms: _185  and  _186
REMARK   82  A    between atoms: _188  and  _190
REMARK   83  A    between atoms: _190  and  _191
REMARK   84  A    between atoms: _190  and  _193
REMARK   85  A    between atoms: _193  and  _194
REMARK   86  A    between atoms: _200  and  _202
REMARK   87  A    between atoms: _202  and  _203
REMARK   88  A    between atoms: _202  and  _205
REMARK   89  A    between atoms: _205  and  _206
REMARK   90  A    between atoms: _209  and  _211
REMARK   91  A    between atoms: _211  and  _212
REMARK   92  A    between atoms: _211  and  _214
REMARK   93  A    between atoms: _214  and  _215
REMARK   94  A    between atoms: _218  and  _220
REMARK   95  A    between atoms: _220  and  _221
REMARK   96  A    between atoms: _220  and  _223
REMARK   97  A    between atoms: _223  and  _224
REMARK   98  A    between atoms: _227  and  _229
REMARK   99  A    between atoms: _229  and  _230
REMARK  100  A    between atoms: _229  and  _232
REMARK  101  A    between atoms: _232  and  _233
REMARK  102  A    between atoms: _233  and  _234
REMARK  103  A    between atoms: _236  and  _238
REMARK  104  A    between atoms: _238  and  _239
REMARK  105  A    between atoms: _238  and  _241
REMARK  106  A    between atoms: _241  and  _242
REMARK  107  A    between atoms: _248  and  _250
REMARK  108  A    between atoms: _250  and  _251
REMARK  109  A    between atoms: _250  and  _253
REMARK  110  A    between atoms: _255  and  _257
REMARK  111  A    between atoms: _257  and  _258
REMARK  112  A    between atoms: _261  and  _263
REMARK  113  A    between atoms: _263  and  _264
REMARK  114  A    between atoms: _266  and  _268
REMARK  115  A    between atoms: _268  and  _269
REMARK  116  A    between atoms: _268  and  _271
REMARK  117  A    between atoms: _271  and  _272
REMARK  118  A    between atoms: _272  and  _273
REMARK  119  A    between atoms: _276  and  _278
REMARK  120  A    between atoms: _278  and  _279
REMARK  121  A    between atoms: _278  and  _281
REMARK  122  A    between atoms: _281  and  _282
REMARK  123  A    between atoms: _285  and  _287
REMARK  124  A    between atoms: _287  and  _288
REMARK  125  A    between atoms: _291  and  _293
REMARK  126  A    between atoms: _293  and  _294
REMARK  127  A    between atoms: _293  and  _296
REMARK  128  A    between atoms: _296  and  _297
REMARK  129  A    between atoms: _297  and  _420
REMARK  130  A    between atoms: _298  and  _300
REMARK  131  A    between atoms: _300  and  _301
REMARK  132  A    between atoms: _300  and  _303
REMARK  133  A    between atoms: _303  and  _304
REMARK  134  A    between atoms: _304  and  _305
REMARK  135  A    between atoms: _310  and  _312
REMARK  136  A    between atoms: _312  and  _313
REMARK  137  A    between atoms: _315  and  _317
REMARK  138  A    between atoms: _317  and  _318
REMARK  139  A    between atoms: _317  and  _320
REMARK  140  A    between atoms: _320  and  _321
REMARK  141  A    between atoms: _324  and  _326
REMARK  142  A    between atoms: _326  and  _327
REMARK  143  A    between atoms: _326  and  _329
REMARK  144  A    between atoms: _329  and  _330
REMARK  145  A    between atoms: _332  and  _334
REMARK  146  A    between atoms: _334  and  _335
REMARK  147  A    between atoms: _337  and  _339
REMARK  148  A    between atoms: _339  and  _340
REMARK  149  A    between atoms: _342  and  _344
REMARK  150  A    between atoms: _344  and  _345
REMARK  151  A    between atoms: _344  and  _347
REMARK  152  A    between atoms: _347  and  _348
REMARK  153  A    between atoms: _353  and  _355
REMARK  154  A    between atoms: _355  and  _356
REMARK  155  A    between atoms: _355  and  _358
REMARK  156  A    between atoms: _358  and  _359
REMARK  157  A    between atoms: _362  and  _364
REMARK  158  A    between atoms: _364  and  _365
REMARK  159  A    between atoms: _364  and  _367
REMARK  160  A    between atoms: _370  and  _372
REMARK  161  A    between atoms: _372  and  _373
REMARK  162  A    between atoms: _372  and  _375
REMARK  163  A    between atoms: _375  and  _376
REMARK  164  A    between atoms: _378  and  _380
REMARK  165  A    between atoms: _380  and  _381
REMARK  166  A    between atoms: _380  and  _383
REMARK  167  A    between atoms: _383  and  _384
REMARK  168  A    between atoms: _394  and  _396
REMARK  169  A    between atoms: _396  and  _397
REMARK  170  A    between atoms: _399  and  _401
REMARK  171  A    between atoms: _401  and  _402
REMARK  172  A    between atoms: _401  and  _404
REMARK  173  A    between atoms: _404  and  _405
REMARK  174  A    between atoms: _405  and  _406
REMARK  175  A    between atoms: _409  and  _411
REMARK  176  A    between atoms: _411  and  _412
REMARK  177  A    between atoms: _414  and  _416
REMARK  178  A    between atoms: _416  and  _417
REMARK  179  A    between atoms: _416  and  _419
REMARK  180  A    between atoms: _419  and  _420
REMARK  181  A    between atoms: _421  and  _423
REMARK  182  A    between atoms: _423  and  _424
REMARK  183  A    between atoms: _427  and  _429
REMARK  184  A    between atoms: _429  and  _430
REMARK  185  A    between atoms: _429  and  _432
REMARK  186  A    between atoms: _432  and  _433
REMARK  187  A    between atoms: _433  and  _434
REMARK  188  A    between atoms: _434  and  _435
REMARK  189  A    between atoms: _444  and  _446
REMARK  190  A    between atoms: _446  and  _447
REMARK  191  A    between atoms: _446  and  _449
REMARK  192  A    between atoms: _449  and  _450
REMARK  193  A    between atoms: _450  and  _451
REMARK  194  A    between atoms: _451  and  _452
REMARK  195  A    between atoms: _452  and  _453
REMARK  196  A    between atoms: _457  and  _459
REMARK  197  A    between atoms: _459  and  _460
REMARK  198  A    between atoms: _459  and  _462
REMARK  199  A    between atoms: _462  and  _463
REMARK  200  A    between atoms: _468  and  _469
REMARK  201  A    between atoms: _471  and  _473
REMARK  202  A    between atoms: _473  and  _474
REMARK  203  A    between atoms: _476  and  _478
REMARK  204  A    between atoms: _478  and  _479
REMARK  205  A    between atoms: _478  and  _481
REMARK  206  A    between atoms: _481  and  _482
REMARK  207  A    between atoms: _485  and  _487
REMARK  208  A    between atoms: _487  and  _488
REMARK  209  A    between atoms: _487  and  _490
REMARK  210  A    between atoms: _490  and  _491
REMARK  211  A    between atoms: _496  and  _497
REMARK  212  A    between atoms: _499  and  _501
REMARK  213  A    between atoms: _501  and  _502
REMARK  214  A    between atoms: _501  and  _504
REMARK  215  A    between atoms: _504  and  _505
REMARK                            x       y       z     vdW  Elec       q    Type
REMARK                         _______ _______ _______ _____ _____    ______ ____
ROOT
ATOM      1  O   HOH     1      -6.363   8.797  14.130  0.00  0.00    +0.000 OA
ENDROOT
TORSDOF 0
REMARK  Name = ../refined-set-2016/2vvv/2vvv_pocket.pdb
REMARK  215 active torsions:
REMARK  status: ('A' for Active; 'I' for Inactive)
REMARK    1  A    between atoms: _1  and  _5
REMARK    2  A    between atoms: _5  and  _6
REMARK    3  A    between atoms: _5  and  _8
REMARK    4  A    between atoms: _8  and  _9
REMARK    5  A    between atoms: _12  and  _14
REMARK    6  A    between atoms: _14  and  _15
REMARK    7  A    between atoms: _14  and  _17
REMARK    8  A    between atoms: _20  and  _22
REMARK    9  A    between atoms: _22  and  _23
REMARK   10  A    between atoms: _22  and  _25
REMARK   11  A    between atoms: _25  and  _26
REMARK   12  A    between atoms: _31  and  _33
REMARK   13  A    between atoms: _33  and  _34
REMARK   14  A    between atoms: _33  and  _36
REMARK   15  A    between atoms: _36  and  _37
REMARK   16  A    between atoms: _37  and  _38
REMARK   17  A    between atoms: _43  and  _45
REMARK   18  A    between atoms: _45  and  _46
REMARK   19  A    between atoms: _45  and  _48
REMARK   20  A    between atoms: _48  and  _49
REMARK   21  A    between atoms: _52  and  _54
REMARK   22  A    between atoms: _54  and  _55
REMARK   23  A    between atoms: _54  and  _57
REMARK   24  A    between atoms: _57  and  _58
REMARK   25  A    between atoms: _58  and  _59
REMARK   26  A    between atoms: _59  and  _60
REMARK   27  A    between atoms: _60  and  _61
REMARK   28  A    between atoms: _65  and  _67
REMARK   29  A    between atoms: _67  and  _68
REMARK   30  A    between atoms: _67  and  _70
REMARK   31  A    between atoms: _70  and  _71
REMARK   32  A    between atoms: _71  and  _72
REMARK   33  A    between atoms: _75  and  _77
REMARK   34  A    between atoms: _77  and  _78
REMARK   35  A    between atoms: _77  and  _80
REMARK   36  A    between atoms: _80  and  _81
REMARK   37  A    between atoms: _84  and  _86
REMARK   38  A    between atoms: _86  and  _87
REMARK   39  A    between atoms: _86  and  _89
REMARK   40  A    between atoms: _89  and  _90
REMARK   41  A    between atoms: _95  and  _96
REMARK   42  A    between atoms: _98  and  _100
REMARK   43  A    between atoms: _100  and  _101
REMARK   44  A    between atoms: _100  and  _103
REMARK   45  A    between atoms: _103  and  _104
REMARK   46  A    between atoms: _107  and  _109
REMARK   47  A    between atoms: _109  and  _110
REMARK   48  A    between atoms: _109  and  _112
REMARK   49  A    between atoms: _112  and  _113
REMARK   50  A    between atoms: _116  and  _118
REMARK   51  A    between atoms: _118  and  _119
REMARK   52  A    between atoms: _118  and  _121
REMARK   53  A    between atoms: _124  and  _126
REMARK   54  A    between atoms: _126  and  _127
REMARK   55  A    between atoms: _126  and  _129
REMARK   56  A    between atoms: _129  and  _130
REMARK   57  A    between atoms: _130  and  _131
REMARK   58  A    between atoms: _131  and  _132
REMARK   59  A    between atoms: _141  and  _143
REMARK   60  A    between atoms: _143  and  _144
REMARK   61  A    between atoms: _143  and  _146
REMARK   62  A    between atoms: _146  and  _147
REMARK   63  A    between atoms: _147  and  _148
REMARK   64  A    between atoms: _151  and  _153
REMARK   65  A    between atoms: _153  and  _154
REMARK   66  A    between atoms: _153  and  _156
REMARK   67  A    between atoms: _156  and  _157
REMARK   68  A    between atoms: _157  and  _158
REMARK   69  A    between atoms: _158  and  _159
REMARK   70  A    between atoms: _159  and  _160
REMARK   71  A    between atoms: _164  and  _166
REMARK   72  A    between atoms: _166  and  _167
REMARK   73  A    between atoms: _166  and  _169
REMARK   74  A    between atoms: _172  and  _174
REMARK   75  A    between atoms: _174  and  _175
REMARK   76  A    between atoms: _174  and  _177
REMARK   77  A    between atoms: _177  and  _178
REMARK   78  A    between atoms: _180  and  _182
REMARK   79  A    between atoms: _182  and  _183
REMARK   80  A    between atoms: _182  and  _185
REMARK   81  A    between atoms: _185  and  _186
REMARK   82  A    between atoms: _188  and  _190
REMARK   83  A    between atoms: _190  and  _191
REMARK   84  A    between atoms: _190  and  _193
REMARK   85  A    between atoms: _193  and  _194
REMARK   86  A    between atoms: _200  and  _202
REMARK   87  A    between atoms: _202  and  _203
REMARK   88  A    between atoms: _202  and  _205
REMARK   89  A    between atoms: _205  and  _206
REMARK   90  A    between atoms: _209  and  _211
REMARK   91  A    between atoms: _211  and  _212
REMARK   92  A    between atoms: _211  and  _214
REMARK   93  A    between atoms: _214  and  _215
REMARK   94  A    between atoms: _218  and  _220
REMARK   95  A    between atoms: _220  and  _221
REMARK   96  A    between atoms: _220  and  _223
REMARK   97  A    between atoms: _223  and  _224
REMARK   98  A    between atoms: _227  and  _229
REMARK   99  A    between atoms: _229  and  _230
REMARK  100  A    between atoms: _229  and  _232
REMARK  101  A    between atoms: _232  and  _233
REMARK  102  A    between atoms: _233  and  _234
REMARK  103  A    between atoms: _236  and  _238
REMARK  104  A    between atoms: _238  and  _239
REMARK  105  A    between atoms: _238  and  _241
REMARK  106  A    between atoms: _241  and  _242
REMARK  107  A    between atoms: _248  and  _250
REMARK  108  A    between atoms: _250  and  _251
REMARK  109  A    between atoms: _250  and  _253
REMARK  110  A    between atoms: _255  and  _257
REMARK  111  A    between atoms: _257  and  _258
REMARK  112  A    between atoms: _261  and  _263
REMARK  113  A    between atoms: _263  and  _264
REMARK  114  A    between atoms: _266  and  _268
REMARK  115  A    between atoms: _268  and  _269
REMARK  116  A    between atoms: _268  and  _271
REMARK  117  A    between atoms: _271  and  _272
REMARK  118  A    between atoms: _272  and  _273
REMARK  119  A    between atoms: _276  and  _278
REMARK  120  A    between atoms: _278  and  _279
REMARK  121  A    between atoms: _278  and  _281
REMARK  122  A    between atoms: _281  and  _282
REMARK  123  A    between atoms: _285  and  _287
REMARK  124  A    between atoms: _287  and  _288
REMARK  125  A    between atoms: _291  and  _293
REMARK  126  A    between atoms: _293  and  _294
REMARK  127  A    between atoms: _293  and  _296
REMARK  128  A    between atoms: _296  and  _297
REMARK  129  A    between atoms: _297  and  _420
REMARK  130  A    between atoms: _298  and  _300
REMARK  131  A    between atoms: _300  and  _301
REMARK  132  A    between atoms: _300  and  _303
REMARK  133  A    between atoms: _303  and  _304
REMARK  134  A    between atoms: _304  and  _305
REMARK  135  A    between atoms: _310  and  _312
REMARK  136  A    between atoms: _312  and  _313
REMARK  137  A    between atoms: _315  and  _317
REMARK  138  A    between atoms: _317  and  _318
REMARK  139  A    between atoms: _317  and  _320
REMARK  140  A    between atoms: _320  and  _321
REMARK  141  A    between atoms: _324  and  _326
REMARK  142  A    between atoms: _326  and  _327
REMARK  143  A    between atoms: _326  and  _329
REMARK  144  A    between atoms: _329  and  _330
REMARK  145  A    between atoms: _332  and  _334
REMARK  146  A    between atoms: _334  and  _335
REMARK  147  A    between atoms: _337  and  _339
REMARK  148  A    between atoms: _339  and  _340
REMARK  149  A    between atoms: _342  and  _344
REMARK  150  A    between atoms: _344  and  _345
REMARK  151  A    between atoms: _344  and  _347
REMARK  152  A    between atoms: _347  and  _348
REMARK  153  A    between atoms: _353  and  _355
REMARK  154  A    between atoms: _355  and  _356
REMARK  155  A    between atoms: _355  and  _358
REMARK  156  A    between atoms: _358  and  _359
REMARK  157  A    between atoms: _362  and  _364
REMARK  158  A    between atoms: _364  and  _365
REMARK  159  A    between atoms: _364  and  _367
REMARK  160  A    between atoms: _370  and  _372
REMARK  161  A    between atoms: _372  and  _373
REMARK  162  A    between atoms: _372  and  _375
REMARK  163  A    between atoms: _375  and  _376
REMARK  164  A    between atoms: _378  and  _380
REMARK  165  A    between atoms: _380  and  _381
REMARK  166  A    between atoms: _380  and  _383
REMARK  167  A    between atoms: _383  and  _384
REMARK  168  A    between atoms: _394  and  _396
REMARK  169  A    between atoms: _396  and  _397
REMARK  170  A    between atoms: _399  and  _401
REMARK  171  A    between atoms: _401  and  _402
REMARK  172  A    between atoms: _401  and  _404
REMARK  173  A    between atoms: _404  and  _405
REMARK  174  A    between atoms: _405  and  _406
REMARK  175  A    between atoms: _409  and  _411
REMARK  176  A    between atoms: _411  and  _412
REMARK  177  A    between atoms: _414  and  _416
REMARK  178  A    between atoms: _416  and  _417
REMARK  179  A    between atoms: _416  and  _419
REMARK  180  A    between atoms: _419  and  _420
REMARK  181  A    between atoms: _421  and  _423
REMARK  182  A    between atoms: _423  and  _424
REMARK  183  A    between atoms: _427  and  _429
REMARK  184  A    between atoms: _429  and  _430
REMARK  185  A    between atoms: _429  and  _432
REMARK  186  A    between atoms: _432  and  _433
REMARK  187  A    between atoms: _433  and  _434
REMARK  188  A    between atoms: _434  and  _435
REMARK  189  A    between atoms: _444  and  _446
REMARK  190  A    between atoms: _446  and  _447
REMARK  191  A    between atoms: _446  and  _449
REMARK  192  A    between atoms: _449  and  _450
REMARK  193  A    between atoms: _450  and  _451
REMARK  194  A    between atoms: _451  and  _452
REMARK  195  A    between atoms: _452  and  _453
REMARK  196  A    between atoms: _457  and  _459
REMARK  197  A    between atoms: _459  and  _460
REMARK  198  A    between atoms: _459  and  _462
REMARK  199  A    between atoms: _462  and  _463
REMARK  200  A    between atoms: _468  and  _469
REMARK  201  A    between atoms: _471  and  _473
REMARK  202  A    between atoms: _473  and  _474
REMARK  203  A    between atoms: _476  and  _478
REMARK  204  A    between atoms: _478  and  _479
REMARK  205  A    between atoms: _478  and  _481
REMARK  206  A    between atoms: _481  and  _482
REMARK  207  A    between atoms: _485  and  _487
REMARK  208  A    between atoms: _487  and  _488
REMARK  209  A    between atoms: _487  and  _490
REMARK  210  A    between atoms: _490  and  _491
REMARK  211  A    between atoms: _496  and  _497
REMARK  212  A    between atoms: _499  and  _501
REMARK  213  A    between atoms: _501  and  _502
REMARK  214  A    between atoms: _501  and  _504
REMARK  215  A    between atoms: _504  and  _505
REMARK                            x       y       z     vdW  Elec       q    Type
REMARK                         _______ _______ _______ _____ _____    ______ ____
ROOT
ATOM      1  O   HOH     1      -6.173  11.582  17.261  0.00  0.00    +0.000 OA
ENDROOT
TORSDOF 0
