REMARK  Name = ../refined-set-2016/3d9z/3d9z_pocket.pdb
REMARK  143 active torsions:
REMARK  status: ('A' for Active; 'I' for Inactive)
REMARK    1  A    between atoms: _1  and  _3
REMARK    2  A    between atoms: _3  and  _4
REMARK    3  A    between atoms: _3  and  _6
REMARK    4  A    between atoms: _6  and  _7
REMARK    5  A    between atoms: _17  and  _19
REMARK    6  A    between atoms: _19  and  _20
REMARK    7  A    between atoms: _19  and  _22
REMARK    8  A    between atoms: _22  and  _23
REMARK    9  A    between atoms: _28  and  _29
REMARK   10  A    between atoms: _31  and  _33
REMARK   11  A    between atoms: _33  and  _34
REMARK   12  A    between atoms: _33  and  _36
REMARK   13  A    between atoms: _36  and  _37
REMARK   14  A    between atoms: _40  and  _41
REMARK   15  A    between atoms: _46  and  _48
REMARK   16  A    between atoms: _48  and  _49
REMARK   17  A    between atoms: _48  and  _51
REMARK   18  A    between atoms: _51  and  _52
REMARK   19  A    between atoms: _57  and  _59
REMARK   20  A    between atoms: _59  and  _60
REMARK   21  A    between atoms: _63  and  _65
REMARK   22  A    between atoms: _65  and  _66
REMARK   23  A    between atoms: _65  and  _68
REMARK   24  A    between atoms: _68  and  _69
REMARK   25  A    between atoms: _74  and  _76
REMARK   26  A    between atoms: _76  and  _77
REMARK   27  A    between atoms: _76  and  _79
REMARK   28  A    between atoms: _79  and  _80
REMARK   29  A    between atoms: _83  and  _85
REMARK   30  A    between atoms: _85  and  _86
REMARK   31  A    between atoms: _85  and  _88
REMARK   32  A    between atoms: _88  and  _89
REMARK   33  A    between atoms: _89  and  _90
REMARK   34  A    between atoms: _95  and  _97
REMARK   35  A    between atoms: _97  and  _98
REMARK   36  A    between atoms: _97  and  _100
REMARK   37  A    between atoms: _100  and  _101
REMARK   38  A    between atoms: _107  and  _109
REMARK   39  A    between atoms: _120  and  _123
REMARK   40  A    between atoms: _123  and  _124
REMARK   41  A    between atoms: _132  and  _133
REMARK   42  A    between atoms: _141  and  _143
REMARK   43  A    between atoms: _143  and  _144
REMARK   44  A    between atoms: _143  and  _146
REMARK   45  A    between atoms: _146  and  _147
REMARK   46  A    between atoms: _147  and  _148
REMARK   47  A    between atoms: _151  and  _153
REMARK   48  A    between atoms: _153  and  _154
REMARK   49  A    between atoms: _153  and  _156
REMARK   50  A    between atoms: _156  and  _157
REMARK   51  A    between atoms: _162  and  _164
REMARK   52  A    between atoms: _164  and  _165
REMARK   53  A    between atoms: _164  and  _167
REMARK   54  A    between atoms: _167  and  _168
REMARK   55  A    between atoms: _168  and  _169
REMARK   56  A    between atoms: _172  and  _174
REMARK   57  A    between atoms: _174  and  _175
REMARK   58  A    between atoms: _174  and  _177
REMARK   59  A    between atoms: _177  and  _178
REMARK   60  A    between atoms: _181  and  _183
REMARK   61  A    between atoms: _183  and  _184
REMARK   62  A    between atoms: _183  and  _186
REMARK   63  A    between atoms: _186  and  _187
REMARK   64  A    between atoms: _188  and  ZN_403
REMARK   65  A    between atoms: _192  and  _194
REMARK   66  A    between atoms: _194  and  _195
REMARK   67  A    between atoms: _194  and  _197
REMARK   68  A    between atoms: _197  and  _198
REMARK   69  A    between atoms: _201  and  _203
REMARK   70  A    between atoms: _203  and  _204
REMARK   71  A    between atoms: _203  and  _206
REMARK   72  A    between atoms: _209  and  _211
REMARK   73  A    between atoms: _211  and  _212
REMARK   74  A    between atoms: _211  and  _214
REMARK   75  A    between atoms: _214  and  _215
REMARK   76  A    between atoms: _220  and  _222
REMARK   77  A    between atoms: _222  and  _223
REMARK   78  A    between atoms: _222  and  _225
REMARK   79  A    between atoms: _225  and  _226
REMARK   80  A    between atoms: _232  and  _234
REMARK   81  A    between atoms: _234  and  _235
REMARK   82  A    between atoms: _234  and  _237
REMARK   83  A    between atoms: _240  and  _242
REMARK   84  A    between atoms: _242  and  _243
REMARK   85  A    between atoms: _242  and  _245
REMARK   86  A    between atoms: _245  and  _246
REMARK   87  A    between atoms: _249  and  _251
REMARK   88  A    between atoms: _251  and  _252
REMARK   89  A    between atoms: _255  and  _257
REMARK   90  A    between atoms: _257  and  _258
REMARK   91  A    between atoms: _257  and  _260
REMARK   92  A    between atoms: _263  and  _265
REMARK   93  A    between atoms: _265  and  _266
REMARK   94  A    between atoms: _265  and  _268
REMARK   95  A    between atoms: _268  and  _269
REMARK   96  A    between atoms: _272  and  _274
REMARK   97  A    between atoms: _274  and  _275
REMARK   98  A    between atoms: _277  and  _279
REMARK   99  A    between atoms: _279  and  _280
REMARK  100  A    between atoms: _279  and  _282
REMARK  101  A    between atoms: _282  and  _283
REMARK  102  A    between atoms: _285  and  _287
REMARK  103  A    between atoms: _287  and  _288
REMARK  104  A    between atoms: _287  and  _290
REMARK  105  A    between atoms: _290  and  _291
REMARK  106  A    between atoms: _294  and  _296
REMARK  107  A    between atoms: _296  and  _297
REMARK  108  A    between atoms: _296  and  _299
REMARK  109  A    between atoms: _299  and  _300
REMARK  110  A    between atoms: _303  and  _305
REMARK  111  A    between atoms: _305  and  _306
REMARK  112  A    between atoms: _305  and  _308
REMARK  113  A    between atoms: _308  and  _309
REMARK  114  A    between atoms: _313  and  _314
REMARK  115  A    between atoms: _320  and  _321
REMARK  116  A    between atoms: _326  and  _328
REMARK  117  A    between atoms: _328  and  _329
REMARK  118  A    between atoms: _328  and  _331
REMARK  119  A    between atoms: _331  and  _332
REMARK  120  A    between atoms: _335  and  _337
REMARK  121  A    between atoms: _337  and  _338
REMARK  122  A    between atoms: _337  and  _340
REMARK  123  A    between atoms: _340  and  _341
REMARK  124  A    between atoms: _344  and  _346
REMARK  125  A    between atoms: _346  and  _347
REMARK  126  A    between atoms: _346  and  _349
REMARK  127  A    between atoms: _351  and  _353
REMARK  128  A    between atoms: _353  and  _354
REMARK  129  A    between atoms: _353  and  _356
REMARK  130  A    between atoms: _359  and  _361
REMARK  131  A    between atoms: _361  and  _362
REMARK  132  A    between atoms: _361  and  _364
REMARK  133  A    between atoms: _364  and  _365
REMARK  134  A    between atoms: _375  and  _377
REMARK  135  A    between atoms: _377  and  _378
REMARK  136  A    between atoms: _377  and  _380
REMARK  137  A    between atoms: _380  and  _381
REMARK  138  A    between atoms: _386  and  _388
REMARK  139  A    between atoms: _388  and  _389
REMARK  140  A    between atoms: _388  and  _391
REMARK  141  A    between atoms: _391  and  _392
REMARK  142  A    between atoms: _392  and  _393
REMARK  143  A    between atoms: _393  and  _394
REMARK                            x       y       z     vdW  Elec       q    Type
REMARK                         _______ _______ _______ _____ _____    ______ ____
ROOT
ATOM      1  CG  TRP A   1       5.781  -0.309  12.129  0.00  0.00    -0.002 A 
ATOM      2  CD2 TRP A   1       4.463  -0.721  12.022  0.00  0.00    +0.013 A 
ATOM      3  CE3 TRP A   1       3.916  -1.964  12.222  0.00  0.00    +0.001 A 
ATOM      4  CZ3 TRP A   1       2.526  -2.070  12.128  0.00  0.00    +0.000 A 
ATOM      5  CH2 TRP A   1       1.731  -0.948  11.799  0.00  0.00    +0.001 A 
ATOM      6  CZ2 TRP A   1       2.294   0.272  11.563  0.00  0.00    +0.017 A 
ATOM      7  CE2 TRP A   1       3.678   0.385  11.687  0.00  0.00    +0.056 A 
ATOM      8  NE1 TRP A   1       4.518   1.471  11.595  0.00  0.00    -0.352 N 
ATOM      9  HE1 TRP A   1       4.239   2.445  11.359  0.00  0.00    +0.166 HD
ATOM     10  CD1 TRP A   1       5.785   1.039  11.870  0.00  0.00    +0.068 A 
ENDROOT
BRANCH   1  11
ATOM     11  CB  TRP A   1       6.979  -1.157  12.456  0.00  0.00    +0.053 C 
BRANCH  11  12
ATOM     12  CA  TRP A   1       7.687  -1.853  11.341  0.00  0.00    +0.137 C 
BRANCH  12  13
ATOM     13  N   TRP A   1       8.398  -0.931  10.500  0.00  0.00    -0.239 NA
ATOM     14  H   TRP A   1       8.188   0.087  10.544  0.00  0.00    +0.142 HD
ENDBRANCH  12  13
BRANCH  12  15
ATOM     15  C   TRP A   1       6.726  -2.680  10.586  0.00  0.00    +0.224 C 
ATOM     16  O   TRP A   1       6.222  -2.288   9.539  0.00  0.00    -0.287 OA
ENDBRANCH  12  15
ENDBRANCH  11  12
ENDBRANCH   1  11
TORSDOF 4
REMARK  Name = ../refined-set-2016/3d9z/3d9z_pocket.pdb
REMARK  143 active torsions:
REMARK  status: ('A' for Active; 'I' for Inactive)
REMARK    1  A    between atoms: _1  and  _3
REMARK    2  A    between atoms: _3  and  _4
REMARK    3  A    between atoms: _3  and  _6
REMARK    4  A    between atoms: _6  and  _7
REMARK    5  A    between atoms: _17  and  _19
REMARK    6  A    between atoms: _19  and  _20
REMARK    7  A    between atoms: _19  and  _22
REMARK    8  A    between atoms: _22  and  _23
REMARK    9  A    between atoms: _28  and  _29
REMARK   10  A    between atoms: _31  and  _33
REMARK   11  A    between atoms: _33  and  _34
REMARK   12  A    between atoms: _33  and  _36
REMARK   13  A    between atoms: _36  and  _37
REMARK   14  A    between atoms: _40  and  _41
REMARK   15  A    between atoms: _46  and  _48
REMARK   16  A    between atoms: _48  and  _49
REMARK   17  A    between atoms: _48  and  _51
REMARK   18  A    between atoms: _51  and  _52
REMARK   19  A    between atoms: _57  and  _59
REMARK   20  A    between atoms: _59  and  _60
REMARK   21  A    between atoms: _63  and  _65
REMARK   22  A    between atoms: _65  and  _66
REMARK   23  A    between atoms: _65  and  _68
REMARK   24  A    between atoms: _68  and  _69
REMARK   25  A    between atoms: _74  and  _76
REMARK   26  A    between atoms: _76  and  _77
REMARK   27  A    between atoms: _76  and  _79
REMARK   28  A    between atoms: _79  and  _80
REMARK   29  A    between atoms: _83  and  _85
REMARK   30  A    between atoms: _85  and  _86
REMARK   31  A    between atoms: _85  and  _88
REMARK   32  A    between atoms: _88  and  _89
REMARK   33  A    between atoms: _89  and  _90
REMARK   34  A    between atoms: _95  and  _97
REMARK   35  A    between atoms: _97  and  _98
REMARK   36  A    between atoms: _97  and  _100
REMARK   37  A    between atoms: _100  and  _101
REMARK   38  A    between atoms: _107  and  _109
REMARK   39  A    between atoms: _120  and  _123
REMARK   40  A    between atoms: _123  and  _124
REMARK   41  A    between atoms: _132  and  _133
REMARK   42  A    between atoms: _141  and  _143
REMARK   43  A    between atoms: _143  and  _144
REMARK   44  A    between atoms: _143  and  _146
REMARK   45  A    between atoms: _146  and  _147
REMARK   46  A    between atoms: _147  and  _148
REMARK   47  A    between atoms: _151  and  _153
REMARK   48  A    between atoms: _153  and  _154
REMARK   49  A    between atoms: _153  and  _156
REMARK   50  A    between atoms: _156  and  _157
REMARK   51  A    between atoms: _162  and  _164
REMARK   52  A    between atoms: _164  and  _165
REMARK   53  A    between atoms: _164  and  _167
REMARK   54  A    between atoms: _167  and  _168
REMARK   55  A    between atoms: _168  and  _169
REMARK   56  A    between atoms: _172  and  _174
REMARK   57  A    between atoms: _174  and  _175
REMARK   58  A    between atoms: _174  and  _177
REMARK   59  A    between atoms: _177  and  _178
REMARK   60  A    between atoms: _181  and  _183
REMARK   61  A    between atoms: _183  and  _184
REMARK   62  A    between atoms: _183  and  _186
REMARK   63  A    between atoms: _186  and  _187
REMARK   64  A    between atoms: _188  and  ZN_403
REMARK   65  A    between atoms: _192  and  _194
REMARK   66  A    between atoms: _194  and  _195
REMARK   67  A    between atoms: _194  and  _197
REMARK   68  A    between atoms: _197  and  _198
REMARK   69  A    between atoms: _201  and  _203
REMARK   70  A    between atoms: _203  and  _204
REMARK   71  A    between atoms: _203  and  _206
REMARK   72  A    between atoms: _209  and  _211
REMARK   73  A    between atoms: _211  and  _212
REMARK   74  A    between atoms: _211  and  _214
REMARK   75  A    between atoms: _214  and  _215
REMARK   76  A    between atoms: _220  and  _222
REMARK   77  A    between atoms: _222  and  _223
REMARK   78  A    between atoms: _222  and  _225
REMARK   79  A    between atoms: _225  and  _226
REMARK   80  A    between atoms: _232  and  _234
REMARK   81  A    between atoms: _234  and  _235
REMARK   82  A    between atoms: _234  and  _237
REMARK   83  A    between atoms: _240  and  _242
REMARK   84  A    between atoms: _242  and  _243
REMARK   85  A    between atoms: _242  and  _245
REMARK   86  A    between atoms: _245  and  _246
REMARK   87  A    between atoms: _249  and  _251
REMARK   88  A    between atoms: _251  and  _252
REMARK   89  A    between atoms: _255  and  _257
REMARK   90  A    between atoms: _257  and  _258
REMARK   91  A    between atoms: _257  and  _260
REMARK   92  A    between atoms: _263  and  _265
REMARK   93  A    between atoms: _265  and  _266
REMARK   94  A    between atoms: _265  and  _268
REMARK   95  A    between atoms: _268  and  _269
REMARK   96  A    between atoms: _272  and  _274
REMARK   97  A    between atoms: _274  and  _275
REMARK   98  A    between atoms: _277  and  _279
REMARK   99  A    between atoms: _279  and  _280
REMARK  100  A    between atoms: _279  and  _282
REMARK  101  A    between atoms: _282  and  _283
REMARK  102  A    between atoms: _285  and  _287
REMARK  103  A    between atoms: _287  and  _288
REMARK  104  A    between atoms: _287  and  _290
REMARK  105  A    between atoms: _290  and  _291
REMARK  106  A    between atoms: _294  and  _296
REMARK  107  A    between atoms: _296  and  _297
REMARK  108  A    between atoms: _296  and  _299
REMARK  109  A    between atoms: _299  and  _300
REMARK  110  A    between atoms: _303  and  _305
REMARK  111  A    between atoms: _305  and  _306
REMARK  112  A    between atoms: _305  and  _308
REMARK  113  A    between atoms: _308  and  _309
REMARK  114  A    between atoms: _313  and  _314
REMARK  115  A    between atoms: _320  and  _321
REMARK  116  A    between atoms: _326  and  _328
REMARK  117  A    between atoms: _328  and  _329
REMARK  118  A    between atoms: _328  and  _331
REMARK  119  A    between atoms: _331  and  _332
REMARK  120  A    between atoms: _335  and  _337
REMARK  121  A    between atoms: _337  and  _338
REMARK  122  A    between atoms: _337  and  _340
REMARK  123  A    between atoms: _340  and  _341
REMARK  124  A    between atoms: _344  and  _346
REMARK  125  A    between atoms: _346  and  _347
REMARK  126  A    between atoms: _346  and  _349
REMARK  127  A    between atoms: _351  and  _353
REMARK  128  A    between atoms: _353  and  _354
REMARK  129  A    between atoms: _353  and  _356
REMARK  130  A    between atoms: _359  and  _361
REMARK  131  A    between atoms: _361  and  _362
REMARK  132  A    between atoms: _361  and  _364
REMARK  133  A    between atoms: _364  and  _365
REMARK  134  A    between atoms: _375  and  _377
REMARK  135  A    between atoms: _377  and  _378
REMARK  136  A    between atoms: _377  and  _380
REMARK  137  A    between atoms: _380  and  _381
REMARK  138  A    between atoms: _386  and  _388
REMARK  139  A    between atoms: _388  and  _389
REMARK  140  A    between atoms: _388  and  _391
REMARK  141  A    between atoms: _391  and  _392
REMARK  142  A    between atoms: _392  and  _393
REMARK  143  A    between atoms: _393  and  _394
REMARK                            x       y       z     vdW  Elec       q    Type
REMARK                         _______ _______ _______ _____ _____    ______ ____
ROOT
ATOM      1  CG  TYR A   1       1.947  -7.381  11.943  0.00  0.00    -0.020 A 
ATOM      2  CD2 TYR A   1       1.550  -7.417  13.276  0.00  0.00    -0.001 A 
ATOM      3  CE2 TYR A   1       0.720  -6.412  13.768  0.00  0.00    +0.036 A 
ATOM      4  CZ  TYR A   1       0.287  -5.394  12.965  0.00  0.00    +0.134 A 
ATOM      5  CE1 TYR A   1       0.665  -5.342  11.640  0.00  0.00    +0.036 A 
ATOM      6  CD1 TYR A   1       1.487  -6.339  11.165  0.00  0.00    -0.001 A 
ENDROOT
BRANCH   4   7
ATOM      7  OH  TYR A   1      -0.534  -4.390  13.426  0.00  0.00    -0.506 OA
ATOM      8  HH  TYR A   1      -0.727  -3.759  12.688  0.00  0.00    +0.292 HD
ENDBRANCH   4   7
BRANCH   1   9
ATOM      9  CB  TYR A   1       2.854  -8.442  11.326  0.00  0.00    +0.051 C 
BRANCH   9  10
ATOM     10  CA  TYR A   1       4.346  -8.175  11.545  0.00  0.00    +0.137 C 
BRANCH  10  11
ATOM     11  N   TYR A   1       4.775  -6.997  10.793  0.00  0.00    -0.239 NA
ATOM     12  H   TYR A   1       4.825  -7.053   9.756  0.00  0.00    +0.142 HD
ENDBRANCH  10  11
BRANCH  10  13
ATOM     13  C   TYR A   1       5.157  -9.409  11.172  0.00  0.00    +0.224 C 
ATOM     14  O   TYR A   1       4.790 -10.535  11.504  0.00  0.00    -0.287 OA
ENDBRANCH  10  13
ENDBRANCH   9  10
ENDBRANCH   1   9
TORSDOF 5
REMARK  Name = ../refined-set-2016/3d9z/3d9z_pocket.pdb
REMARK  143 active torsions:
REMARK  status: ('A' for Active; 'I' for Inactive)
REMARK    1  A    between atoms: _1  and  _3
REMARK    2  A    between atoms: _3  and  _4
REMARK    3  A    between atoms: _3  and  _6
REMARK    4  A    between atoms: _6  and  _7
REMARK    5  A    between atoms: _17  and  _19
REMARK    6  A    between atoms: _19  and  _20
REMARK    7  A    between atoms: _19  and  _22
REMARK    8  A    between atoms: _22  and  _23
REMARK    9  A    between atoms: _28  and  _29
REMARK   10  A    between atoms: _31  and  _33
REMARK   11  A    between atoms: _33  and  _34
REMARK   12  A    between atoms: _33  and  _36
REMARK   13  A    between atoms: _36  and  _37
REMARK   14  A    between atoms: _40  and  _41
REMARK   15  A    between atoms: _46  and  _48
REMARK   16  A    between atoms: _48  and  _49
REMARK   17  A    between atoms: _48  and  _51
REMARK   18  A    between atoms: _51  and  _52
REMARK   19  A    between atoms: _57  and  _59
REMARK   20  A    between atoms: _59  and  _60
REMARK   21  A    between atoms: _63  and  _65
REMARK   22  A    between atoms: _65  and  _66
REMARK   23  A    between atoms: _65  and  _68
REMARK   24  A    between atoms: _68  and  _69
REMARK   25  A    between atoms: _74  and  _76
REMARK   26  A    between atoms: _76  and  _77
REMARK   27  A    between atoms: _76  and  _79
REMARK   28  A    between atoms: _79  and  _80
REMARK   29  A    between atoms: _83  and  _85
REMARK   30  A    between atoms: _85  and  _86
REMARK   31  A    between atoms: _85  and  _88
REMARK   32  A    between atoms: _88  and  _89
REMARK   33  A    between atoms: _89  and  _90
REMARK   34  A    between atoms: _95  and  _97
REMARK   35  A    between atoms: _97  and  _98
REMARK   36  A    between atoms: _97  and  _100
REMARK   37  A    between atoms: _100  and  _101
REMARK   38  A    between atoms: _107  and  _109
REMARK   39  A    between atoms: _120  and  _123
REMARK   40  A    between atoms: _123  and  _124
REMARK   41  A    between atoms: _132  and  _133
REMARK   42  A    between atoms: _141  and  _143
REMARK   43  A    between atoms: _143  and  _144
REMARK   44  A    between atoms: _143  and  _146
REMARK   45  A    between atoms: _146  and  _147
REMARK   46  A    between atoms: _147  and  _148
REMARK   47  A    between atoms: _151  and  _153
REMARK   48  A    between atoms: _153  and  _154
REMARK   49  A    between atoms: _153  and  _156
REMARK   50  A    between atoms: _156  and  _157
REMARK   51  A    between atoms: _162  and  _164
REMARK   52  A    between atoms: _164  and  _165
REMARK   53  A    between atoms: _164  and  _167
REMARK   54  A    between atoms: _167  and  _168
REMARK   55  A    between atoms: _168  and  _169
REMARK   56  A    between atoms: _172  and  _174
REMARK   57  A    between atoms: _174  and  _175
REMARK   58  A    between atoms: _174  and  _177
REMARK   59  A    between atoms: _177  and  _178
REMARK   60  A    between atoms: _181  and  _183
REMARK   61  A    between atoms: _183  and  _184
REMARK   62  A    between atoms: _183  and  _186
REMARK   63  A    between atoms: _186  and  _187
REMARK   64  A    between atoms: _188  and  ZN_403
REMARK   65  A    between atoms: _192  and  _194
REMARK   66  A    between atoms: _194  and  _195
REMARK   67  A    between atoms: _194  and  _197
REMARK   68  A    between atoms: _197  and  _198
REMARK   69  A    between atoms: _201  and  _203
REMARK   70  A    between atoms: _203  and  _204
REMARK   71  A    between atoms: _203  and  _206
REMARK   72  A    between atoms: _209  and  _211
REMARK   73  A    between atoms: _211  and  _212
REMARK   74  A    between atoms: _211  and  _214
REMARK   75  A    between atoms: _214  and  _215
REMARK   76  A    between atoms: _220  and  _222
REMARK   77  A    between atoms: _222  and  _223
REMARK   78  A    between atoms: _222  and  _225
REMARK   79  A    between atoms: _225  and  _226
REMARK   80  A    between atoms: _232  and  _234
REMARK   81  A    between atoms: _234  and  _235
REMARK   82  A    between atoms: _234  and  _237
REMARK   83  A    between atoms: _240  and  _242
REMARK   84  A    between atoms: _242  and  _243
REMARK   85  A    between atoms: _242  and  _245
REMARK   86  A    between atoms: _245  and  _246
REMARK   87  A    between atoms: _249  and  _251
REMARK   88  A    between atoms: _251  and  _252
REMARK   89  A    between atoms: _255  and  _257
REMARK   90  A    between atoms: _257  and  _258
REMARK   91  A    between atoms: _257  and  _260
REMARK   92  A    between atoms: _263  and  _265
REMARK   93  A    between atoms: _265  and  _266
REMARK   94  A    between atoms: _265  and  _268
REMARK   95  A    between atoms: _268  and  _269
REMARK   96  A    between atoms: _272  and  _274
REMARK   97  A    between atoms: _274  and  _275
REMARK   98  A    between atoms: _277  and  _279
REMARK   99  A    between atoms: _279  and  _280
REMARK  100  A    between atoms: _279  and  _282
REMARK  101  A    between atoms: _282  and  _283
REMARK  102  A    between atoms: _285  and  _287
REMARK  103  A    between atoms: _287  and  _288
REMARK  104  A    between atoms: _287  and  _290
REMARK  105  A    between atoms: _290  and  _291
REMARK  106  A    between atoms: _294  and  _296
REMARK  107  A    between atoms: _296  and  _297
REMARK  108  A    between atoms: _296  and  _299
REMARK  109  A    between atoms: _299  and  _300
REMARK  110  A    between atoms: _303  and  _305
REMARK  111  A    between atoms: _305  and  _306
REMARK  112  A    between atoms: _305  and  _308
REMARK  113  A    between atoms: _308  and  _309
REMARK  114  A    between atoms: _313  and  _314
REMARK  115  A    between atoms: _320  and  _321
REMARK  116  A    between atoms: _326  and  _328
REMARK  117  A    between atoms: _328  and  _329
REMARK  118  A    between atoms: _328  and  _331
REMARK  119  A    between atoms: _331  and  _332
REMARK  120  A    between atoms: _335  and  _337
REMARK  121  A    between atoms: _337  and  _338
REMARK  122  A    between atoms: _337  and  _340
REMARK  123  A    between atoms: _340  and  _341
REMARK  124  A    between atoms: _344  and  _346
REMARK  125  A    between atoms: _346  and  _347
REMARK  126  A    between atoms: _346  and  _349
REMARK  127  A    between atoms: _351  and  _353
REMARK  128  A    between atoms: _353  and  _354
REMARK  129  A    between atoms: _353  and  _356
REMARK  130  A    between atoms: _359  and  _361
REMARK  131  A    between atoms: _361  and  _362
REMARK  132  A    between atoms: _361  and  _364
REMARK  133  A    between atoms: _364  and  _365
REMARK  134  A    between atoms: _375  and  _377
REMARK  135  A    between atoms: _377  and  _378
REMARK  136  A    between atoms: _377  and  _380
REMARK  137  A    between atoms: _380  and  _381
REMARK  138  A    between atoms: _386  and  _388
REMARK  139  A    between atoms: _388  and  _389
REMARK  140  A    between atoms: _388  and  _391
REMARK  141  A    between atoms: _391  and  _392
REMARK  142  A    between atoms: _392  and  _393
REMARK  143  A    between atoms: _393  and  _394
REMARK                            x       y       z     vdW  Elec       q    Type
REMARK                         _______ _______ _______ _____ _____    ______ ____
ROOT
ATOM      1  C   SER A   1      -2.374  -3.568  23.409  0.00  0.00    +0.244 C 
ATOM      2  N   PRO A   2      -2.960  -4.715  23.118  0.00  0.00    -0.273 N 
ATOM      3  CA  PRO A   2      -4.147  -5.215  23.816  0.00  0.00    +0.140 C 
ATOM      4  CB  PRO A   2      -4.643  -6.262  22.811  0.00  0.00    +0.030 C 
ATOM      5  CG  PRO A   2      -3.383  -6.821  22.194  0.00  0.00    +0.024 C 
ATOM      6  CD  PRO A   2      -2.508  -5.610  22.023  0.00  0.00    +0.094 C 
ATOM      7  O   SER A   1      -1.395  -3.166  22.777  0.00  0.00    -0.273 OA
ENDROOT
BRANCH   3   8
ATOM      8  C   PRO A   2      -3.787  -5.918  25.120  0.00  0.00    +0.227 C 
ATOM      9  O   PRO A   2      -2.596  -5.977  25.415  0.00  0.00    -0.286 OA
ENDBRANCH   3   8
BRANCH   1  10
ATOM     10  CA  SER A   1      -2.920  -2.661  24.513  0.00  0.00    +0.175 C 
BRANCH  10  11
ATOM     11  N   SER A   1      -1.861  -1.762  24.930  0.00  0.00    -0.236 NA
ATOM     12  H   SER A   1      -1.398  -1.182  24.202  0.00  0.00    +0.142 HD
ENDBRANCH  10  11
BRANCH  10  13
ATOM     13  CB  SER A   1      -4.115  -1.897  23.928  0.00  0.00    +0.163 C 
BRANCH  13  14
ATOM     14  OG  SER A   1      -4.734  -1.108  24.935  0.00  0.00    -0.380 OA
ATOM     15  H   SER A   1      -5.051  -1.696  25.665  0.00  0.00    +0.211 HD
ENDBRANCH  13  14
ENDBRANCH  10  13
ENDBRANCH   1  10
TORSDOF 5
REMARK  Name = ../refined-set-2016/3d9z/3d9z_pocket.pdb
REMARK  143 active torsions:
REMARK  status: ('A' for Active; 'I' for Inactive)
REMARK    1  A    between atoms: _1  and  _3
REMARK    2  A    between atoms: _3  and  _4
REMARK    3  A    between atoms: _3  and  _6
REMARK    4  A    between atoms: _6  and  _7
REMARK    5  A    between atoms: _17  and  _19
REMARK    6  A    between atoms: _19  and  _20
REMARK    7  A    between atoms: _19  and  _22
REMARK    8  A    between atoms: _22  and  _23
REMARK    9  A    between atoms: _28  and  _29
REMARK   10  A    between atoms: _31  and  _33
REMARK   11  A    between atoms: _33  and  _34
REMARK   12  A    between atoms: _33  and  _36
REMARK   13  A    between atoms: _36  and  _37
REMARK   14  A    between atoms: _40  and  _41
REMARK   15  A    between atoms: _46  and  _48
REMARK   16  A    between atoms: _48  and  _49
REMARK   17  A    between atoms: _48  and  _51
REMARK   18  A    between atoms: _51  and  _52
REMARK   19  A    between atoms: _57  and  _59
REMARK   20  A    between atoms: _59  and  _60
REMARK   21  A    between atoms: _63  and  _65
REMARK   22  A    between atoms: _65  and  _66
REMARK   23  A    between atoms: _65  and  _68
REMARK   24  A    between atoms: _68  and  _69
REMARK   25  A    between atoms: _74  and  _76
REMARK   26  A    between atoms: _76  and  _77
REMARK   27  A    between atoms: _76  and  _79
REMARK   28  A    between atoms: _79  and  _80
REMARK   29  A    between atoms: _83  and  _85
REMARK   30  A    between atoms: _85  and  _86
REMARK   31  A    between atoms: _85  and  _88
REMARK   32  A    between atoms: _88  and  _89
REMARK   33  A    between atoms: _89  and  _90
REMARK   34  A    between atoms: _95  and  _97
REMARK   35  A    between atoms: _97  and  _98
REMARK   36  A    between atoms: _97  and  _100
REMARK   37  A    between atoms: _100  and  _101
REMARK   38  A    between atoms: _107  and  _109
REMARK   39  A    between atoms: _120  and  _123
REMARK   40  A    between atoms: _123  and  _124
REMARK   41  A    between atoms: _132  and  _133
REMARK   42  A    between atoms: _141  and  _143
REMARK   43  A    between atoms: _143  and  _144
REMARK   44  A    between atoms: _143  and  _146
REMARK   45  A    between atoms: _146  and  _147
REMARK   46  A    between atoms: _147  and  _148
REMARK   47  A    between atoms: _151  and  _153
REMARK   48  A    between atoms: _153  and  _154
REMARK   49  A    between atoms: _153  and  _156
REMARK   50  A    between atoms: _156  and  _157
REMARK   51  A    between atoms: _162  and  _164
REMARK   52  A    between atoms: _164  and  _165
REMARK   53  A    between atoms: _164  and  _167
REMARK   54  A    between atoms: _167  and  _168
REMARK   55  A    between atoms: _168  and  _169
REMARK   56  A    between atoms: _172  and  _174
REMARK   57  A    between atoms: _174  and  _175
REMARK   58  A    between atoms: _174  and  _177
REMARK   59  A    between atoms: _177  and  _178
REMARK   60  A    between atoms: _181  and  _183
REMARK   61  A    between atoms: _183  and  _184
REMARK   62  A    between atoms: _183  and  _186
REMARK   63  A    between atoms: _186  and  _187
REMARK   64  A    between atoms: _188  and  ZN_403
REMARK   65  A    between atoms: _192  and  _194
REMARK   66  A    between atoms: _194  and  _195
REMARK   67  A    between atoms: _194  and  _197
REMARK   68  A    between atoms: _197  and  _198
REMARK   69  A    between atoms: _201  and  _203
REMARK   70  A    between atoms: _203  and  _204
REMARK   71  A    between atoms: _203  and  _206
REMARK   72  A    between atoms: _209  and  _211
REMARK   73  A    between atoms: _211  and  _212
REMARK   74  A    between atoms: _211  and  _214
REMARK   75  A    between atoms: _214  and  _215
REMARK   76  A    between atoms: _220  and  _222
REMARK   77  A    between atoms: _222  and  _223
REMARK   78  A    between atoms: _222  and  _225
REMARK   79  A    between atoms: _225  and  _226
REMARK   80  A    between atoms: _232  and  _234
REMARK   81  A    between atoms: _234  and  _235
REMARK   82  A    between atoms: _234  and  _237
REMARK   83  A    between atoms: _240  and  _242
REMARK   84  A    between atoms: _242  and  _243
REMARK   85  A    between atoms: _242  and  _245
REMARK   86  A    between atoms: _245  and  _246
REMARK   87  A    between atoms: _249  and  _251
REMARK   88  A    between atoms: _251  and  _252
REMARK   89  A    between atoms: _255  and  _257
REMARK   90  A    between atoms: _257  and  _258
REMARK   91  A    between atoms: _257  and  _260
REMARK   92  A    between atoms: _263  and  _265
REMARK   93  A    between atoms: _265  and  _266
REMARK   94  A    between atoms: _265  and  _268
REMARK   95  A    between atoms: _268  and  _269
REMARK   96  A    between atoms: _272  and  _274
REMARK   97  A    between atoms: _274  and  _275
REMARK   98  A    between atoms: _277  and  _279
REMARK   99  A    between atoms: _279  and  _280
REMARK  100  A    between atoms: _279  and  _282
REMARK  101  A    between atoms: _282  and  _283
REMARK  102  A    between atoms: _285  and  _287
REMARK  103  A    between atoms: _287  and  _288
REMARK  104  A    between atoms: _287  and  _290
REMARK  105  A    between atoms: _290  and  _291
REMARK  106  A    between atoms: _294  and  _296
REMARK  107  A    between atoms: _296  and  _297
REMARK  108  A    between atoms: _296  and  _299
REMARK  109  A    between atoms: _299  and  _300
REMARK  110  A    between atoms: _303  and  _305
REMARK  111  A    between atoms: _305  and  _306
REMARK  112  A    between atoms: _305  and  _308
REMARK  113  A    between atoms: _308  and  _309
REMARK  114  A    between atoms: _313  and  _314
REMARK  115  A    between atoms: _320  and  _321
REMARK  116  A    between atoms: _326  and  _328
REMARK  117  A    between atoms: _328  and  _329
REMARK  118  A    between atoms: _328  and  _331
REMARK  119  A    between atoms: _331  and  _332
REMARK  120  A    between atoms: _335  and  _337
REMARK  121  A    between atoms: _337  and  _338
REMARK  122  A    between atoms: _337  and  _340
REMARK  123  A    between atoms: _340  and  _341
REMARK  124  A    between atoms: _344  and  _346
REMARK  125  A    between atoms: _346  and  _347
REMARK  126  A    between atoms: _346  and  _349
REMARK  127  A    between atoms: _351  and  _353
REMARK  128  A    between atoms: _353  and  _354
REMARK  129  A    between atoms: _353  and  _356
REMARK  130  A    between atoms: _359  and  _361
REMARK  131  A    between atoms: _361  and  _362
REMARK  132  A    between atoms: _361  and  _364
REMARK  133  A    between atoms: _364  and  _365
REMARK  134  A    between atoms: _375  and  _377
REMARK  135  A    between atoms: _377  and  _378
REMARK  136  A    between atoms: _377  and  _380
REMARK  137  A    between atoms: _380  and  _381
REMARK  138  A    between atoms: _386  and  _388
REMARK  139  A    between atoms: _388  and  _389
REMARK  140  A    between atoms: _388  and  _391
REMARK  141  A    between atoms: _391  and  _392
REMARK  142  A    between atoms: _392  and  _393
REMARK  143  A    between atoms: _393  and  _394
REMARK                            x       y       z     vdW  Elec       q    Type
REMARK                         _______ _______ _______ _____ _____    ______ ____
ROOT
ATOM      1  CB  ASN A   1      -2.721   1.633   5.218  0.00  0.00    +0.110 C 
ENDROOT
BRANCH   1   2
ATOM      2  CG  ASN A   1      -2.936   0.897   6.513  0.00  0.00    +0.221 C 
ATOM      3  OD1 ASN A   1      -3.188   1.525   7.563  0.00  0.00    -0.275 OA
ATOM      4  ND2 ASN A   1      -2.865  -0.415   6.540  0.00  0.00    -0.329 N 
ATOM      5 HD21 ASN A   1      -3.018  -0.926   7.433  0.00  0.00    +0.145 HD
ATOM      6 HD22 ASN A   1      -2.655  -0.942   5.669  0.00  0.00    +0.145 HD
ENDBRANCH   1   2
BRANCH   1   7
ATOM      7  CA  ASN A   1      -2.390   0.803   3.987  0.00  0.00    +0.142 C 
BRANCH   7   8
ATOM      8  N   ASN A   1      -3.509  -0.083   3.640  0.00  0.00    -0.239 NA
ATOM      9  H   ASN A   1      -4.038  -0.614   4.361  0.00  0.00    +0.142 HD
ENDBRANCH   7   8
BRANCH   7  10
ATOM     10  C   ASN A   1      -1.096   0.011   4.192  0.00  0.00    +0.225 C 
ATOM     11  O   ASN A   1      -0.137   0.581   4.699  0.00  0.00    -0.287 OA
ENDBRANCH   7  10
ENDBRANCH   1   7
TORSDOF 4
REMARK  Name = ../refined-set-2016/3d9z/3d9z_pocket.pdb
REMARK  143 active torsions:
REMARK  status: ('A' for Active; 'I' for Inactive)
REMARK    1  A    between atoms: _1  and  _3
REMARK    2  A    between atoms: _3  and  _4
REMARK    3  A    between atoms: _3  and  _6
REMARK    4  A    between atoms: _6  and  _7
REMARK    5  A    between atoms: _17  and  _19
REMARK    6  A    between atoms: _19  and  _20
REMARK    7  A    between atoms: _19  and  _22
REMARK    8  A    between atoms: _22  and  _23
REMARK    9  A    between atoms: _28  and  _29
REMARK   10  A    between atoms: _31  and  _33
REMARK   11  A    between atoms: _33  and  _34
REMARK   12  A    between atoms: _33  and  _36
REMARK   13  A    between atoms: _36  and  _37
REMARK   14  A    between atoms: _40  and  _41
REMARK   15  A    between atoms: _46  and  _48
REMARK   16  A    between atoms: _48  and  _49
REMARK   17  A    between atoms: _48  and  _51
REMARK   18  A    between atoms: _51  and  _52
REMARK   19  A    between atoms: _57  and  _59
REMARK   20  A    between atoms: _59  and  _60
REMARK   21  A    between atoms: _63  and  _65
REMARK   22  A    between atoms: _65  and  _66
REMARK   23  A    between atoms: _65  and  _68
REMARK   24  A    between atoms: _68  and  _69
REMARK   25  A    between atoms: _74  and  _76
REMARK   26  A    between atoms: _76  and  _77
REMARK   27  A    between atoms: _76  and  _79
REMARK   28  A    between atoms: _79  and  _80
REMARK   29  A    between atoms: _83  and  _85
REMARK   30  A    between atoms: _85  and  _86
REMARK   31  A    between atoms: _85  and  _88
REMARK   32  A    between atoms: _88  and  _89
REMARK   33  A    between atoms: _89  and  _90
REMARK   34  A    between atoms: _95  and  _97
REMARK   35  A    between atoms: _97  and  _98
REMARK   36  A    between atoms: _97  and  _100
REMARK   37  A    between atoms: _100  and  _101
REMARK   38  A    between atoms: _107  and  _109
REMARK   39  A    between atoms: _120  and  _123
REMARK   40  A    between atoms: _123  and  _124
REMARK   41  A    between atoms: _132  and  _133
REMARK   42  A    between atoms: _141  and  _143
REMARK   43  A    between atoms: _143  and  _144
REMARK   44  A    between atoms: _143  and  _146
REMARK   45  A    between atoms: _146  and  _147
REMARK   46  A    between atoms: _147  and  _148
REMARK   47  A    between atoms: _151  and  _153
REMARK   48  A    between atoms: _153  and  _154
REMARK   49  A    between atoms: _153  and  _156
REMARK   50  A    between atoms: _156  and  _157
REMARK   51  A    between atoms: _162  and  _164
REMARK   52  A    between atoms: _164  and  _165
REMARK   53  A    between atoms: _164  and  _167
REMARK   54  A    between atoms: _167  and  _168
REMARK   55  A    between atoms: _168  and  _169
REMARK   56  A    between atoms: _172  and  _174
REMARK   57  A    between atoms: _174  and  _175
REMARK   58  A    between atoms: _174  and  _177
REMARK   59  A    between atoms: _177  and  _178
REMARK   60  A    between atoms: _181  and  _183
REMARK   61  A    between atoms: _183  and  _184
REMARK   62  A    between atoms: _183  and  _186
REMARK   63  A    between atoms: _186  and  _187
REMARK   64  A    between atoms: _188  and  ZN_403
REMARK   65  A    between atoms: _192  and  _194
REMARK   66  A    between atoms: _194  and  _195
REMARK   67  A    between atoms: _194  and  _197
REMARK   68  A    between atoms: _197  and  _198
REMARK   69  A    between atoms: _201  and  _203
REMARK   70  A    between atoms: _203  and  _204
REMARK   71  A    between atoms: _203  and  _206
REMARK   72  A    between atoms: _209  and  _211
REMARK   73  A    between atoms: _211  and  _212
REMARK   74  A    between atoms: _211  and  _214
REMARK   75  A    between atoms: _214  and  _215
REMARK   76  A    between atoms: _220  and  _222
REMARK   77  A    between atoms: _222  and  _223
REMARK   78  A    between atoms: _222  and  _225
REMARK   79  A    between atoms: _225  and  _226
REMARK   80  A    between atoms: _232  and  _234
REMARK   81  A    between atoms: _234  and  _235
REMARK   82  A    between atoms: _234  and  _237
REMARK   83  A    between atoms: _240  and  _242
REMARK   84  A    between atoms: _242  and  _243
REMARK   85  A    between atoms: _242  and  _245
REMARK   86  A    between atoms: _245  and  _246
REMARK   87  A    between atoms: _249  and  _251
REMARK   88  A    between atoms: _251  and  _252
REMARK   89  A    between atoms: _255  and  _257
REMARK   90  A    between atoms: _257  and  _258
REMARK   91  A    between atoms: _257  and  _260
REMARK   92  A    between atoms: _263  and  _265
REMARK   93  A    between atoms: _265  and  _266
REMARK   94  A    between atoms: _265  and  _268
REMARK   95  A    between atoms: _268  and  _269
REMARK   96  A    between atoms: _272  and  _274
REMARK   97  A    between atoms: _274  and  _275
REMARK   98  A    between atoms: _277  and  _279
REMARK   99  A    between atoms: _279  and  _280
REMARK  100  A    between atoms: _279  and  _282
REMARK  101  A    between atoms: _282  and  _283
REMARK  102  A    between atoms: _285  and  _287
REMARK  103  A    between atoms: _287  and  _288
REMARK  104  A    between atoms: _287  and  _290
REMARK  105  A    between atoms: _290  and  _291
REMARK  106  A    between atoms: _294  and  _296
REMARK  107  A    between atoms: _296  and  _297
REMARK  108  A    between atoms: _296  and  _299
REMARK  109  A    between atoms: _299  and  _300
REMARK  110  A    between atoms: _303  and  _305
REMARK  111  A    between atoms: _305  and  _306
REMARK  112  A    between atoms: _305  and  _308
REMARK  113  A    between atoms: _308  and  _309
REMARK  114  A    between atoms: _313  and  _314
REMARK  115  A    between atoms: _320  and  _321
REMARK  116  A    between atoms: _326  and  _328
REMARK  117  A    between atoms: _328  and  _329
REMARK  118  A    between atoms: _328  and  _331
REMARK  119  A    between atoms: _331  and  _332
REMARK  120  A    between atoms: _335  and  _337
REMARK  121  A    between atoms: _337  and  _338
REMARK  122  A    between atoms: _337  and  _340
REMARK  123  A    between atoms: _340  and  _341
REMARK  124  A    between atoms: _344  and  _346
REMARK  125  A    between atoms: _346  and  _347
REMARK  126  A    between atoms: _346  and  _349
REMARK  127  A    between atoms: _351  and  _353
REMARK  128  A    between atoms: _353  and  _354
REMARK  129  A    between atoms: _353  and  _356
REMARK  130  A    between atoms: _359  and  _361
REMARK  131  A    between atoms: _361  and  _362
REMARK  132  A    between atoms: _361  and  _364
REMARK  133  A    between atoms: _364  and  _365
REMARK  134  A    between atoms: _375  and  _377
REMARK  135  A    between atoms: _377  and  _378
REMARK  136  A    between atoms: _377  and  _380
REMARK  137  A    between atoms: _380  and  _381
REMARK  138  A    between atoms: _386  and  _388
REMARK  139  A    between atoms: _388  and  _389
REMARK  140  A    between atoms: _388  and  _391
REMARK  141  A    between atoms: _391  and  _392
REMARK  142  A    between atoms: _392  and  _393
REMARK  143  A    between atoms: _393  and  _394
REMARK                            x       y       z     vdW  Elec       q    Type
REMARK                         _______ _______ _______ _____ _____    ______ ____
ROOT
ATOM      1  CA  ALA A   1      -4.660  -3.672   7.300  0.00  0.00    +0.133 C 
ATOM      2  CB  ALA A   1      -5.222  -3.284   8.672  0.00  0.00    +0.027 C 
ENDROOT
BRANCH   1   3
ATOM      3  N   ALA A   1      -3.277  -3.272   7.192  0.00  0.00    -0.239 NA
ATOM      4  H   ALA A   1      -3.042  -2.606   6.428  0.00  0.00    +0.142 HD
ENDBRANCH   1   3
BRANCH   1   5
ATOM      5  C   ALA A   1      -5.462  -3.006   6.187  0.00  0.00    +0.224 C 
ATOM      6  O   ALA A   1      -4.839  -2.322   5.376  0.00  0.00    -0.287 OA
ENDBRANCH   1   5
TORSDOF 2
REMARK  Name = ../refined-set-2016/3d9z/3d9z_pocket.pdb
REMARK  143 active torsions:
REMARK  status: ('A' for Active; 'I' for Inactive)
REMARK    1  A    between atoms: _1  and  _3
REMARK    2  A    between atoms: _3  and  _4
REMARK    3  A    between atoms: _3  and  _6
REMARK    4  A    between atoms: _6  and  _7
REMARK    5  A    between atoms: _17  and  _19
REMARK    6  A    between atoms: _19  and  _20
REMARK    7  A    between atoms: _19  and  _22
REMARK    8  A    between atoms: _22  and  _23
REMARK    9  A    between atoms: _28  and  _29
REMARK   10  A    between atoms: _31  and  _33
REMARK   11  A    between atoms: _33  and  _34
REMARK   12  A    between atoms: _33  and  _36
REMARK   13  A    between atoms: _36  and  _37
REMARK   14  A    between atoms: _40  and  _41
REMARK   15  A    between atoms: _46  and  _48
REMARK   16  A    between atoms: _48  and  _49
REMARK   17  A    between atoms: _48  and  _51
REMARK   18  A    between atoms: _51  and  _52
REMARK   19  A    between atoms: _57  and  _59
REMARK   20  A    between atoms: _59  and  _60
REMARK   21  A    between atoms: _63  and  _65
REMARK   22  A    between atoms: _65  and  _66
REMARK   23  A    between atoms: _65  and  _68
REMARK   24  A    between atoms: _68  and  _69
REMARK   25  A    between atoms: _74  and  _76
REMARK   26  A    between atoms: _76  and  _77
REMARK   27  A    between atoms: _76  and  _79
REMARK   28  A    between atoms: _79  and  _80
REMARK   29  A    between atoms: _83  and  _85
REMARK   30  A    between atoms: _85  and  _86
REMARK   31  A    between atoms: _85  and  _88
REMARK   32  A    between atoms: _88  and  _89
REMARK   33  A    between atoms: _89  and  _90
REMARK   34  A    between atoms: _95  and  _97
REMARK   35  A    between atoms: _97  and  _98
REMARK   36  A    between atoms: _97  and  _100
REMARK   37  A    between atoms: _100  and  _101
REMARK   38  A    between atoms: _107  and  _109
REMARK   39  A    between atoms: _120  and  _123
REMARK   40  A    between atoms: _123  and  _124
REMARK   41  A    between atoms: _132  and  _133
REMARK   42  A    between atoms: _141  and  _143
REMARK   43  A    between atoms: _143  and  _144
REMARK   44  A    between atoms: _143  and  _146
REMARK   45  A    between atoms: _146  and  _147
REMARK   46  A    between atoms: _147  and  _148
REMARK   47  A    between atoms: _151  and  _153
REMARK   48  A    between atoms: _153  and  _154
REMARK   49  A    between atoms: _153  and  _156
REMARK   50  A    between atoms: _156  and  _157
REMARK   51  A    between atoms: _162  and  _164
REMARK   52  A    between atoms: _164  and  _165
REMARK   53  A    between atoms: _164  and  _167
REMARK   54  A    between atoms: _167  and  _168
REMARK   55  A    between atoms: _168  and  _169
REMARK   56  A    between atoms: _172  and  _174
REMARK   57  A    between atoms: _174  and  _175
REMARK   58  A    between atoms: _174  and  _177
REMARK   59  A    between atoms: _177  and  _178
REMARK   60  A    between atoms: _181  and  _183
REMARK   61  A    between atoms: _183  and  _184
REMARK   62  A    between atoms: _183  and  _186
REMARK   63  A    between atoms: _186  and  _187
REMARK   64  A    between atoms: _188  and  ZN_403
REMARK   65  A    between atoms: _192  and  _194
REMARK   66  A    between atoms: _194  and  _195
REMARK   67  A    between atoms: _194  and  _197
REMARK   68  A    between atoms: _197  and  _198
REMARK   69  A    between atoms: _201  and  _203
REMARK   70  A    between atoms: _203  and  _204
REMARK   71  A    between atoms: _203  and  _206
REMARK   72  A    between atoms: _209  and  _211
REMARK   73  A    between atoms: _211  and  _212
REMARK   74  A    between atoms: _211  and  _214
REMARK   75  A    between atoms: _214  and  _215
REMARK   76  A    between atoms: _220  and  _222
REMARK   77  A    between atoms: _222  and  _223
REMARK   78  A    between atoms: _222  and  _225
REMARK   79  A    between atoms: _225  and  _226
REMARK   80  A    between atoms: _232  and  _234
REMARK   81  A    between atoms: _234  and  _235
REMARK   82  A    between atoms: _234  and  _237
REMARK   83  A    between atoms: _240  and  _242
REMARK   84  A    between atoms: _242  and  _243
REMARK   85  A    between atoms: _242  and  _245
REMARK   86  A    between atoms: _245  and  _246
REMARK   87  A    between atoms: _249  and  _251
REMARK   88  A    between atoms: _251  and  _252
REMARK   89  A    between atoms: _255  and  _257
REMARK   90  A    between atoms: _257  and  _258
REMARK   91  A    between atoms: _257  and  _260
REMARK   92  A    between atoms: _263  and  _265
REMARK   93  A    between atoms: _265  and  _266
REMARK   94  A    between atoms: _265  and  _268
REMARK   95  A    between atoms: _268  and  _269
REMARK   96  A    between atoms: _272  and  _274
REMARK   97  A    between atoms: _274  and  _275
REMARK   98  A    between atoms: _277  and  _279
REMARK   99  A    between atoms: _279  and  _280
REMARK  100  A    between atoms: _279  and  _282
REMARK  101  A    between atoms: _282  and  _283
REMARK  102  A    between atoms: _285  and  _287
REMARK  103  A    between atoms: _287  and  _288
REMARK  104  A    between atoms: _287  and  _290
REMARK  105  A    between atoms: _290  and  _291
REMARK  106  A    between atoms: _294  and  _296
REMARK  107  A    between atoms: _296  and  _297
REMARK  108  A    between atoms: _296  and  _299
REMARK  109  A    between atoms: _299  and  _300
REMARK  110  A    between atoms: _303  and  _305
REMARK  111  A    between atoms: _305  and  _306
REMARK  112  A    between atoms: _305  and  _308
REMARK  113  A    between atoms: _308  and  _309
REMARK  114  A    between atoms: _313  and  _314
REMARK  115  A    between atoms: _320  and  _321
REMARK  116  A    between atoms: _326  and  _328
REMARK  117  A    between atoms: _328  and  _329
REMARK  118  A    between atoms: _328  and  _331
REMARK  119  A    between atoms: _331  and  _332
REMARK  120  A    between atoms: _335  and  _337
REMARK  121  A    between atoms: _337  and  _338
REMARK  122  A    between atoms: _337  and  _340
REMARK  123  A    between atoms: _340  and  _341
REMARK  124  A    between atoms: _344  and  _346
REMARK  125  A    between atoms: _346  and  _347
REMARK  126  A    between atoms: _346  and  _349
REMARK  127  A    between atoms: _351  and  _353
REMARK  128  A    between atoms: _353  and  _354
REMARK  129  A    between atoms: _353  and  _356
REMARK  130  A    between atoms: _359  and  _361
REMARK  131  A    between atoms: _361  and  _362
REMARK  132  A    between atoms: _361  and  _364
REMARK  133  A    between atoms: _364  and  _365
REMARK  134  A    between atoms: _375  and  _377
REMARK  135  A    between atoms: _377  and  _378
REMARK  136  A    between atoms: _377  and  _380
REMARK  137  A    between atoms: _380  and  _381
REMARK  138  A    between atoms: _386  and  _388
REMARK  139  A    between atoms: _388  and  _389
REMARK  140  A    between atoms: _388  and  _391
REMARK  141  A    between atoms: _391  and  _392
REMARK  142  A    between atoms: _392  and  _393
REMARK  143  A    between atoms: _393  and  _394
REMARK                            x       y       z     vdW  Elec       q    Type
REMARK                         _______ _______ _______ _____ _____    ______ ____
ROOT
ATOM      1  CB  ASN A   1      -8.591   2.062   6.911  0.00  0.00    +0.110 C 
ENDROOT
BRANCH   1   2
ATOM      2  CG  ASN A   1      -7.437   1.911   7.858  0.00  0.00    +0.221 C 
ATOM      3  OD1 ASN A   1      -7.278   0.869   8.477  0.00  0.00    -0.275 OA
ATOM      4  ND2 ASN A   1      -6.635   2.961   7.972  0.00  0.00    -0.329 N 
ATOM      5 HD21 ASN A   1      -5.819   2.924   8.615  0.00  0.00    +0.145 HD
ATOM      6 HD22 ASN A   1      -6.822   3.821   7.418  0.00  0.00    +0.145 HD
ENDBRANCH   1   2
BRANCH   1   7
ATOM      7  CA  ASN A   1      -9.390   0.796   6.611  0.00  0.00    +0.142 C 
BRANCH   7   8
ATOM      8  N   ASN A   1      -8.603  -0.133   5.827  0.00  0.00    -0.239 NA
ATOM      9  H   ASN A   1      -8.154   0.207   4.953  0.00  0.00    +0.142 HD
ENDBRANCH   7   8
BRANCH   7  10
ATOM     10  C   ASN A   1     -10.615   1.272   5.828  0.00  0.00    +0.225 C 
ATOM     11  O   ASN A   1     -10.403   1.667   4.672  0.00  0.00    -0.287 OA
ENDBRANCH   7  10
ENDBRANCH   1   7
TORSDOF 4
REMARK  Name = ../refined-set-2016/3d9z/3d9z_pocket.pdb
REMARK  143 active torsions:
REMARK  status: ('A' for Active; 'I' for Inactive)
REMARK    1  A    between atoms: _1  and  _3
REMARK    2  A    between atoms: _3  and  _4
REMARK    3  A    between atoms: _3  and  _6
REMARK    4  A    between atoms: _6  and  _7
REMARK    5  A    between atoms: _17  and  _19
REMARK    6  A    between atoms: _19  and  _20
REMARK    7  A    between atoms: _19  and  _22
REMARK    8  A    between atoms: _22  and  _23
REMARK    9  A    between atoms: _28  and  _29
REMARK   10  A    between atoms: _31  and  _33
REMARK   11  A    between atoms: _33  and  _34
REMARK   12  A    between atoms: _33  and  _36
REMARK   13  A    between atoms: _36  and  _37
REMARK   14  A    between atoms: _40  and  _41
REMARK   15  A    between atoms: _46  and  _48
REMARK   16  A    between atoms: _48  and  _49
REMARK   17  A    between atoms: _48  and  _51
REMARK   18  A    between atoms: _51  and  _52
REMARK   19  A    between atoms: _57  and  _59
REMARK   20  A    between atoms: _59  and  _60
REMARK   21  A    between atoms: _63  and  _65
REMARK   22  A    between atoms: _65  and  _66
REMARK   23  A    between atoms: _65  and  _68
REMARK   24  A    between atoms: _68  and  _69
REMARK   25  A    between atoms: _74  and  _76
REMARK   26  A    between atoms: _76  and  _77
REMARK   27  A    between atoms: _76  and  _79
REMARK   28  A    between atoms: _79  and  _80
REMARK   29  A    between atoms: _83  and  _85
REMARK   30  A    between atoms: _85  and  _86
REMARK   31  A    between atoms: _85  and  _88
REMARK   32  A    between atoms: _88  and  _89
REMARK   33  A    between atoms: _89  and  _90
REMARK   34  A    between atoms: _95  and  _97
REMARK   35  A    between atoms: _97  and  _98
REMARK   36  A    between atoms: _97  and  _100
REMARK   37  A    between atoms: _100  and  _101
REMARK   38  A    between atoms: _107  and  _109
REMARK   39  A    between atoms: _120  and  _123
REMARK   40  A    between atoms: _123  and  _124
REMARK   41  A    between atoms: _132  and  _133
REMARK   42  A    between atoms: _141  and  _143
REMARK   43  A    between atoms: _143  and  _144
REMARK   44  A    between atoms: _143  and  _146
REMARK   45  A    between atoms: _146  and  _147
REMARK   46  A    between atoms: _147  and  _148
REMARK   47  A    between atoms: _151  and  _153
REMARK   48  A    between atoms: _153  and  _154
REMARK   49  A    between atoms: _153  and  _156
REMARK   50  A    between atoms: _156  and  _157
REMARK   51  A    between atoms: _162  and  _164
REMARK   52  A    between atoms: _164  and  _165
REMARK   53  A    between atoms: _164  and  _167
REMARK   54  A    between atoms: _167  and  _168
REMARK   55  A    between atoms: _168  and  _169
REMARK   56  A    between atoms: _172  and  _174
REMARK   57  A    between atoms: _174  and  _175
REMARK   58  A    between atoms: _174  and  _177
REMARK   59  A    between atoms: _177  and  _178
REMARK   60  A    between atoms: _181  and  _183
REMARK   61  A    between atoms: _183  and  _184
REMARK   62  A    between atoms: _183  and  _186
REMARK   63  A    between atoms: _186  and  _187
REMARK   64  A    between atoms: _188  and  ZN_403
REMARK   65  A    between atoms: _192  and  _194
REMARK   66  A    between atoms: _194  and  _195
REMARK   67  A    between atoms: _194  and  _197
REMARK   68  A    between atoms: _197  and  _198
REMARK   69  A    between atoms: _201  and  _203
REMARK   70  A    between atoms: _203  and  _204
REMARK   71  A    between atoms: _203  and  _206
REMARK   72  A    between atoms: _209  and  _211
REMARK   73  A    between atoms: _211  and  _212
REMARK   74  A    between atoms: _211  and  _214
REMARK   75  A    between atoms: _214  and  _215
REMARK   76  A    between atoms: _220  and  _222
REMARK   77  A    between atoms: _222  and  _223
REMARK   78  A    between atoms: _222  and  _225
REMARK   79  A    between atoms: _225  and  _226
REMARK   80  A    between atoms: _232  and  _234
REMARK   81  A    between atoms: _234  and  _235
REMARK   82  A    between atoms: _234  and  _237
REMARK   83  A    between atoms: _240  and  _242
REMARK   84  A    between atoms: _242  and  _243
REMARK   85  A    between atoms: _242  and  _245
REMARK   86  A    between atoms: _245  and  _246
REMARK   87  A    between atoms: _249  and  _251
REMARK   88  A    between atoms: _251  and  _252
REMARK   89  A    between atoms: _255  and  _257
REMARK   90  A    between atoms: _257  and  _258
REMARK   91  A    between atoms: _257  and  _260
REMARK   92  A    between atoms: _263  and  _265
REMARK   93  A    between atoms: _265  and  _266
REMARK   94  A    between atoms: _265  and  _268
REMARK   95  A    between atoms: _268  and  _269
REMARK   96  A    between atoms: _272  and  _274
REMARK   97  A    between atoms: _274  and  _275
REMARK   98  A    between atoms: _277  and  _279
REMARK   99  A    between atoms: _279  and  _280
REMARK  100  A    between atoms: _279  and  _282
REMARK  101  A    between atoms: _282  and  _283
REMARK  102  A    between atoms: _285  and  _287
REMARK  103  A    between atoms: _287  and  _288
REMARK  104  A    between atoms: _287  and  _290
REMARK  105  A    between atoms: _290  and  _291
REMARK  106  A    between atoms: _294  and  _296
REMARK  107  A    between atoms: _296  and  _297
REMARK  108  A    between atoms: _296  and  _299
REMARK  109  A    between atoms: _299  and  _300
REMARK  110  A    between atoms: _303  and  _305
REMARK  111  A    between atoms: _305  and  _306
REMARK  112  A    between atoms: _305  and  _308
REMARK  113  A    between atoms: _308  and  _309
REMARK  114  A    between atoms: _313  and  _314
REMARK  115  A    between atoms: _320  and  _321
REMARK  116  A    between atoms: _326  and  _328
REMARK  117  A    between atoms: _328  and  _329
REMARK  118  A    between atoms: _328  and  _331
REMARK  119  A    between atoms: _331  and  _332
REMARK  120  A    between atoms: _335  and  _337
REMARK  121  A    between atoms: _337  and  _338
REMARK  122  A    between atoms: _337  and  _340
REMARK  123  A    between atoms: _340  and  _341
REMARK  124  A    between atoms: _344  and  _346
REMARK  125  A    between atoms: _346  and  _347
REMARK  126  A    between atoms: _346  and  _349
REMARK  127  A    between atoms: _351  and  _353
REMARK  128  A    between atoms: _353  and  _354
REMARK  129  A    between atoms: _353  and  _356
REMARK  130  A    between atoms: _359  and  _361
REMARK  131  A    between atoms: _361  and  _362
REMARK  132  A    between atoms: _361  and  _364
REMARK  133  A    between atoms: _364  and  _365
REMARK  134  A    between atoms: _375  and  _377
REMARK  135  A    between atoms: _377  and  _378
REMARK  136  A    between atoms: _377  and  _380
REMARK  137  A    between atoms: _380  and  _381
REMARK  138  A    between atoms: _386  and  _388
REMARK  139  A    between atoms: _388  and  _389
REMARK  140  A    between atoms: _388  and  _391
REMARK  141  A    between atoms: _391  and  _392
REMARK  142  A    between atoms: _392  and  _393
REMARK  143  A    between atoms: _393  and  _394
REMARK                            x       y       z     vdW  Elec       q    Type
REMARK                         _______ _______ _______ _____ _____    ______ ____
ROOT
ATOM      1  C   UNK A   4     -10.346  -1.849  10.340  0.00  0.00    +0.000 C 
ATOM      2  C   UNK A   4     -10.424  -3.168  11.104  0.00  0.00    +0.000 C 
ATOM      3  O   UNK A   4     -11.089  -3.211  12.142  0.00  0.00    +0.000 OA
ATOM      4  N   VAL A   5      -9.764  -4.201  10.603  0.00  0.00    +0.000 N 
ATOM      5  CA  VAL A   5      -9.736  -5.501  11.253  0.00  0.00    +0.000 C 
ATOM      6  C   VAL A   5      -8.304  -5.958  11.530  0.00  0.00    +0.000 C 
ATOM      7  N   UNK A   6      -8.154  -6.876  12.475  0.00  0.00    +0.000 N 
ATOM      8  H   UNK A   6      -8.942  -7.031  13.136  0.00  0.00    +0.000 HD
ATOM      9  C   UNK A   6      -6.949  -7.681  12.642  0.00  0.00    +0.000 C 
ATOM     10  C   UNK A   6      -6.295  -7.454  14.023  0.00  0.00    +0.000 C 
ATOM     11  C   UNK A   6      -6.043  -6.000  14.302  0.00  0.00    +0.000 A 
ATOM     12  C   UNK A   6      -6.856  -4.987  14.691  0.00  0.00    +0.000 A 
ATOM     13  N   UNK A   6      -6.084  -3.838  14.765  0.00  0.00    +0.000 N 
ATOM     14 ZN   UNK A   6      -6.851  -2.074  15.390  0.00  0.00    +0.000 Zn
ATOM     15  N   UNK A   4      -7.579  -1.151  13.721  0.00  0.00    +0.000 N 
ATOM     16  C   UNK A   4      -8.052   0.071  13.545  0.00  0.00    +0.000 A 
ATOM     17  N   UNK A   4      -8.559   0.129  12.325  0.00  0.00    +0.000 NA
ATOM     18  C   UNK A   4      -8.399  -1.083  11.689  0.00  0.00    +0.000 A 
ATOM     19  C   UNK A   4      -7.782  -1.896  12.586  0.00  0.00    +0.000 A 
ATOM     20  C   UNK A   6      -4.842  -4.148  14.433  0.00  0.00    +0.000 A 
ATOM     21  N   UNK A   6      -4.789  -5.445  14.128  0.00  0.00    +0.000 NA
ATOM     22  O   VAL A   5      -7.387  -5.500  10.851  0.00  0.00    +0.000 OA
ATOM     23  H   VAL A   5      -9.246  -4.077   9.710  0.00  0.00    +0.000 HD
ATOM     24  C   UNK A   4      -8.902  -1.309  10.288  0.00  0.00    +0.000 C 
ENDROOT
BRANCH  14  25
ATOM     25  N   UNK A   6      -8.342  -2.784  16.689  0.00  0.00    +0.000 N 
ATOM     26  C   UNK A   6      -8.061  -3.713  17.594  0.00  0.00    +0.000 A 
ATOM     27  N   UNK A   6      -9.204  -4.102  18.156  0.00  0.00    +0.000 NA
ATOM     28  C   UNK A   6     -10.245  -3.402  17.606  0.00  0.00    +0.000 A 
ATOM     29  C   UNK A   6      -9.699  -2.565  16.678  0.00  0.00    +0.000 A 
BRANCH  29  30
ATOM     30  C   UNK A   6     -10.384  -1.581  15.791  0.00  0.00    +0.000 C 
BRANCH  30  31
ATOM     31  C   UNK A   6     -11.886  -1.870  15.672  0.00  0.00    +0.000 C 
BRANCH  31  32
ATOM     32  C   UNK A   6     -12.567  -0.695  14.991  0.00  0.00    +0.000 C 
ATOM     33  N   UNK A   4     -13.508  -0.124  15.727  0.00  0.00    +0.000 N 
ATOM     34  H   UNK A   4     -13.798  -0.545  16.633  0.00  0.00    +0.000 HD
ATOM     35  O   UNK A   6     -12.214  -0.380  13.844  0.00  0.00    +0.000 OA
BRANCH  33  36
ATOM     36  C   UNK A   4     -14.135   1.113  15.244  0.00  0.00    +0.000 C 
BRANCH  36  37
ATOM     37  C   UNK A   4     -13.529   2.282  16.014  0.00  0.00    +0.000 C 
ATOM     38  O   UNK A   4     -13.691   2.339  17.228  0.00  0.00    +0.000 OA
ATOM     39  N   VAL A   5     -12.819   3.152  15.303  0.00  0.00    +0.000 N 
ATOM     40  H   VAL A   5     -12.847   3.109  14.264  0.00  0.00    +0.000 HD
BRANCH  39  41
ATOM     41  CA  VAL A   5     -12.004   4.162  15.957  0.00  0.00    +0.000 C 
BRANCH  41  42
ATOM     42  C   VAL A   5     -12.706   5.514  15.990  0.00  0.00    +0.000 C 
ATOM     43  N   UNK A   6     -12.823   6.106  17.176  0.00  0.00    +0.000 N 
ATOM     44  H   UNK A   6     -12.425   5.639  18.016  0.00  0.00    +0.000 HD
ATOM     45  O   VAL A   5     -13.122   5.983  14.921  0.00  0.00    +0.000 OA
BRANCH  43  46
ATOM     46  C   UNK A   6     -13.491   7.386  17.328  0.00  0.00    +0.000 C 
BRANCH  46  47
ATOM     47  C   UNK A   6     -12.620   8.378  18.097  0.00  0.00    +0.000 C 
ATOM     48  O   UNK A   6     -11.824   7.944  18.937  0.00  0.00    +0.000 OA
ENDBRANCH  46  47
BRANCH  46  49
ATOM     49  C   UNK A   6     -14.803   7.240  18.103  0.00  0.00    +0.000 C 
BRANCH  49  50
ATOM     50  C   UNK A   6     -15.709   6.120  17.720  0.00  0.00    +0.000 A 
ATOM     51  N   UNK A   6     -15.409   4.791  17.921  0.00  0.00    +0.000 NA
ATOM     52  C   UNK A   6     -16.412   4.043  17.486  0.00  0.00    +0.000 A 
ATOM     53  N   UNK A   6     -17.370   4.844  17.011  0.00  0.00    +0.000 NA
ATOM     54  C   UNK A   6     -16.939   6.144  17.154  0.00  0.00    +0.000 A 
ENDBRANCH  49  50
ENDBRANCH  46  49
ENDBRANCH  43  46
ENDBRANCH  41  42
BRANCH  41  55
ATOM     55  CB  VAL A   5     -10.665   4.301  15.203  0.00  0.00    +0.000 C 
ATOM     56  CG2 VAL A   5      -9.788   5.385  15.843  0.00  0.00    +0.000 C 
ATOM     57  CG1 VAL A   5      -9.941   2.965  15.149  0.00  0.00    +0.000 C 
ENDBRANCH  41  55
ENDBRANCH  39  41
ENDBRANCH  36  37
BRANCH  36  58
ATOM     58  C   UNK A   4     -15.633   1.071  15.406  0.00  0.00    +0.000 C 
BRANCH  58  59
ATOM     59  C   UNK A   4     -16.354   0.042  14.512  0.00  0.00    +0.000 C 
ATOM     60  C   UNK A   4     -17.097  -0.957  15.360  0.00  0.00    +0.000 C 
ATOM     61  C   UNK A   4     -17.258   0.786  13.542  0.00  0.00    +0.000 C 
ENDBRANCH  58  59
ENDBRANCH  36  58
ENDBRANCH  33  36
ENDBRANCH  31  32
BRANCH  31  62
ATOM     62  N   UNK A   6     -12.125  -3.084  14.890  0.00  0.00    +0.000 N 
ATOM     63  C   LEU A   2     -12.772  -4.127  15.406  0.00  0.00    +0.000 C 
ATOM     64  O   LEU A   2     -13.236  -4.211  16.555  0.00  0.00    +0.000 OA
ATOM     65  H   UNK A   6     -11.782  -3.133  13.909  0.00  0.00    +0.000 HD
BRANCH  63  66
ATOM     66  CA  LEU A   2     -12.964  -5.294  14.443  0.00  0.00    +0.000 C 
BRANCH  66  67
ATOM     67  N   LEU A   2     -12.581  -6.561  15.070  0.00  0.00    +0.000 N 
ATOM     68  H   LEU A   2     -13.283  -7.056  15.656  0.00  0.00    +0.000 HD
ATOM     69  C   GLU A   1     -11.390  -7.102  14.927  0.00  0.00    +0.000 C 
ATOM     70  O   GLU A   1     -10.506  -6.683  14.193  0.00  0.00    +0.000 OA
BRANCH  69  71
ATOM     71  CA  GLU A   1     -11.128  -8.364  15.757  0.00  0.00    +0.000 C 
BRANCH  71  72
ATOM     72  N   GLU A   1     -10.602  -9.390  14.851  0.00  0.00    +0.000 NA
ATOM     73  H   GLU A   1      -9.916  -9.126  14.115  0.00  0.00    +0.000 HD
ENDBRANCH  71  72
BRANCH  71  74
ATOM     74  CB  GLU A   1     -10.163  -8.109  16.919  0.00  0.00    +0.000 C 
BRANCH  74  75
ATOM     75  CG  GLU A   1     -10.720  -7.170  17.999  0.00  0.00    +0.000 C 
BRANCH  75  76
ATOM     76  CD  GLU A   1      -9.801  -7.113  19.223  0.00  0.00    +0.000 C 
ATOM     77  OE2 GLU A   1      -9.731  -6.049  19.864  0.00  0.00    +0.000 OA
ATOM     78  OE1 GLU A   1      -9.164  -8.133  19.544  0.00  0.00    +0.000 OA
ENDBRANCH  75  76
ENDBRANCH  74  75
ENDBRANCH  71  74
ENDBRANCH  69  71
ENDBRANCH  66  67
BRANCH  66  79
ATOM     79  CB  LEU A   2     -14.413  -5.406  14.009  0.00  0.00    +0.000 C 
BRANCH  79  80
ATOM     80  CG  LEU A   2     -15.216  -4.179  13.606  0.00  0.00    +0.000 C 
ATOM     81  CD2 LEU A   2     -16.672  -4.576  13.341  0.00  0.00    +0.000 C 
ATOM     82  CD1 LEU A   2     -14.626  -3.524  12.357  0.00  0.00    +0.000 C 
ENDBRANCH  79  80
ENDBRANCH  66  79
ENDBRANCH  63  66
ENDBRANCH  31  62
ENDBRANCH  30  31
ENDBRANCH  29  30
ENDBRANCH  14  25
BRANCH   1  84
ATOM     83  C   UNK A   3     -11.771   0.129  10.313  0.00  0.00    +0.000 C 
ATOM     84  N   UNK A   4     -11.263  -0.906  10.981  0.00  0.00    +0.000 N 
ATOM     85  H   UNK A   4     -11.524  -1.046  11.978  0.00  0.00    +0.000 HD
ATOM     86  O   UNK A   3     -11.543   0.347   9.113  0.00  0.00    +0.000 OA
BRANCH  83  87
ATOM     87  C   UNK A   3     -12.742   1.003  11.120  0.00  0.00    +0.000 C 
BRANCH  87  90
ATOM     88  C   LEU A   2     -12.738   3.433  11.164  0.00  0.00    +0.000 C 
ATOM     89  O   LEU A   2     -12.805   3.425  12.391  0.00  0.00    +0.000 OA
ATOM     90  N   UNK A   3     -12.827   2.311  10.453  0.00  0.00    +0.000 N 
ATOM     91  H   UNK A   3     -12.957   2.360   9.422  0.00  0.00    +0.000 HD
BRANCH  88  92
ATOM     92  CA  LEU A   2     -12.523   4.755  10.422  0.00  0.00    +0.000 C 
BRANCH  92  94
ATOM     93  C   GLU A   1     -12.964   7.116  10.750  0.00  0.00    +0.000 C 
ATOM     94  N   LEU A   2     -12.807   5.900  11.289  0.00  0.00    +0.000 N 
ATOM     95  H   LEU A   2     -12.886   5.770  12.318  0.00  0.00    +0.000 HD
ATOM     96  O   GLU A   1     -12.848   7.246   9.527  0.00  0.00    +0.000 OA
BRANCH  93  97
ATOM     97  CA  GLU A   1     -13.275   8.281  11.679  0.00  0.00    +0.000 C 
BRANCH  97  98
ATOM     98  CB  GLU A   1     -11.983   8.958  12.166  0.00  0.00    +0.000 C 
ATOM     99  CG2 GLU A   1     -11.268   8.143  13.247  0.00  0.00    +0.000 C 
BRANCH  98 100
ATOM    100  CG1 GLU A   1     -11.025   9.299  11.011  0.00  0.00    +0.000 C 
ATOM    101  CD1 GLU A   1      -9.857  10.169  11.448  0.00  0.00    +0.000 C 
ENDBRANCH  98 100
ENDBRANCH  97  98
BRANCH  97 102
ATOM    102  N   GLU A   1     -14.098   7.828  12.802  0.00  0.00    +0.000 NA
ATOM    103  H   GLU A   1     -13.719   7.143  13.487  0.00  0.00    +0.000 HD
ENDBRANCH  97 102
ENDBRANCH  93  97
ENDBRANCH  92  94
BRANCH  92 104
ATOM    104  CB  LEU A   2     -11.079   4.779   9.892  0.00  0.00    +0.000 C 
BRANCH 104 105
ATOM    105  CG  LEU A   2     -10.010   4.790  10.999  0.00  0.00    +0.000 C 
BRANCH 105 106
ATOM    106  CD  LEU A   2      -9.189   3.520  10.996  0.00  0.00    +0.000 C 
ATOM    107  OE1 LEU A   2      -9.716   2.475  11.339  0.00  0.00    +0.000 OA
ATOM    108  NE2 LEU A   2      -7.924   3.557  10.614  0.00  0.00    +0.000 N 
ATOM    109 HE21 LEU A   2      -7.359   2.684  10.602  0.00  0.00    +0.000 HD
ATOM    110 HE22 LEU A   2      -7.494   4.459  10.325  0.00  0.00    +0.000 HD
ENDBRANCH 105 106
ENDBRANCH 104 105
ENDBRANCH  92 104
ENDBRANCH  88  92
ENDBRANCH  87  90
BRANCH  87 111
ATOM    111  C   UNK A   3     -14.094   0.323  11.302  0.00  0.00    +0.000 C 
BRANCH 111 112
ATOM    112  C   UNK A   3     -14.864  -0.200  10.095  0.00  0.00    +0.000 A 
ATOM    113  C   UNK A   3     -15.971   0.523   9.643  0.00  0.00    +0.000 A 
ATOM    114  C   UNK A   3     -16.703   0.067   8.555  0.00  0.00    +0.000 A 
ATOM    115  C   UNK A   3     -16.333  -1.095   7.897  0.00  0.00    +0.000 A 
ATOM    116  C   UNK A   3     -15.245  -1.832   8.342  0.00  0.00    +0.000 A 
ATOM    117  C   UNK A   3     -14.535  -1.367   9.420  0.00  0.00    +0.000 A 
ENDBRANCH 111 112
ENDBRANCH  87 111
ENDBRANCH  83  87
ENDBRANCH   1  84
BRANCH   9 118
ATOM    118  C   UNK A   6      -7.355  -9.144  12.458  0.00  0.00    +0.000 C 
ATOM    119  O   UNK A   6      -8.436  -9.500  12.966  0.00  0.00    +0.000 OA
ENDBRANCH   9 118
BRANCH   5 120
ATOM    120  CB  VAL A   5     -10.409  -6.567  10.369  0.00  0.00    +0.000 C 
BRANCH 120 121
ATOM    121  CG  VAL A   5     -11.901  -6.364  10.124  0.00  0.00    +0.000 A 
ATOM    122  CD2 VAL A   5     -12.842  -7.033  10.884  0.00  0.00    +0.000 A 
ATOM    123  CE2 VAL A   5     -14.185  -6.840  10.625  0.00  0.00    +0.000 A 
ATOM    124  CZ  VAL A   5     -14.597  -5.998   9.604  0.00  0.00    +0.000 A 
ATOM    125  CE1 VAL A   5     -13.666  -5.330   8.826  0.00  0.00    +0.000 A 
ATOM    126  CD1 VAL A   5     -12.318  -5.516   9.112  0.00  0.00    +0.000 A 
ENDBRANCH 120 121
ENDBRANCH   5 120
TORSDOF 42
REMARK  Name = ../refined-set-2016/3d9z/3d9z_pocket.pdb
REMARK  143 active torsions:
REMARK  status: ('A' for Active; 'I' for Inactive)
REMARK    1  A    between atoms: _1  and  _3
REMARK    2  A    between atoms: _3  and  _4
REMARK    3  A    between atoms: _3  and  _6
REMARK    4  A    between atoms: _6  and  _7
REMARK    5  A    between atoms: _17  and  _19
REMARK    6  A    between atoms: _19  and  _20
REMARK    7  A    between atoms: _19  and  _22
REMARK    8  A    between atoms: _22  and  _23
REMARK    9  A    between atoms: _28  and  _29
REMARK   10  A    between atoms: _31  and  _33
REMARK   11  A    between atoms: _33  and  _34
REMARK   12  A    between atoms: _33  and  _36
REMARK   13  A    between atoms: _36  and  _37
REMARK   14  A    between atoms: _40  and  _41
REMARK   15  A    between atoms: _46  and  _48
REMARK   16  A    between atoms: _48  and  _49
REMARK   17  A    between atoms: _48  and  _51
REMARK   18  A    between atoms: _51  and  _52
REMARK   19  A    between atoms: _57  and  _59
REMARK   20  A    between atoms: _59  and  _60
REMARK   21  A    between atoms: _63  and  _65
REMARK   22  A    between atoms: _65  and  _66
REMARK   23  A    between atoms: _65  and  _68
REMARK   24  A    between atoms: _68  and  _69
REMARK   25  A    between atoms: _74  and  _76
REMARK   26  A    between atoms: _76  and  _77
REMARK   27  A    between atoms: _76  and  _79
REMARK   28  A    between atoms: _79  and  _80
REMARK   29  A    between atoms: _83  and  _85
REMARK   30  A    between atoms: _85  and  _86
REMARK   31  A    between atoms: _85  and  _88
REMARK   32  A    between atoms: _88  and  _89
REMARK   33  A    between atoms: _89  and  _90
REMARK   34  A    between atoms: _95  and  _97
REMARK   35  A    between atoms: _97  and  _98
REMARK   36  A    between atoms: _97  and  _100
REMARK   37  A    between atoms: _100  and  _101
REMARK   38  A    between atoms: _107  and  _109
REMARK   39  A    between atoms: _120  and  _123
REMARK   40  A    between atoms: _123  and  _124
REMARK   41  A    between atoms: _132  and  _133
REMARK   42  A    between atoms: _141  and  _143
REMARK   43  A    between atoms: _143  and  _144
REMARK   44  A    between atoms: _143  and  _146
REMARK   45  A    between atoms: _146  and  _147
REMARK   46  A    between atoms: _147  and  _148
REMARK   47  A    between atoms: _151  and  _153
REMARK   48  A    between atoms: _153  and  _154
REMARK   49  A    between atoms: _153  and  _156
REMARK   50  A    between atoms: _156  and  _157
REMARK   51  A    between atoms: _162  and  _164
REMARK   52  A    between atoms: _164  and  _165
REMARK   53  A    between atoms: _164  and  _167
REMARK   54  A    between atoms: _167  and  _168
REMARK   55  A    between atoms: _168  and  _169
REMARK   56  A    between atoms: _172  and  _174
REMARK   57  A    between atoms: _174  and  _175
REMARK   58  A    between atoms: _174  and  _177
REMARK   59  A    between atoms: _177  and  _178
REMARK   60  A    between atoms: _181  and  _183
REMARK   61  A    between atoms: _183  and  _184
REMARK   62  A    between atoms: _183  and  _186
REMARK   63  A    between atoms: _186  and  _187
REMARK   64  A    between atoms: _188  and  ZN_403
REMARK   65  A    between atoms: _192  and  _194
REMARK   66  A    between atoms: _194  and  _195
REMARK   67  A    between atoms: _194  and  _197
REMARK   68  A    between atoms: _197  and  _198
REMARK   69  A    between atoms: _201  and  _203
REMARK   70  A    between atoms: _203  and  _204
REMARK   71  A    between atoms: _203  and  _206
REMARK   72  A    between atoms: _209  and  _211
REMARK   73  A    between atoms: _211  and  _212
REMARK   74  A    between atoms: _211  and  _214
REMARK   75  A    between atoms: _214  and  _215
REMARK   76  A    between atoms: _220  and  _222
REMARK   77  A    between atoms: _222  and  _223
REMARK   78  A    between atoms: _222  and  _225
REMARK   79  A    between atoms: _225  and  _226
REMARK   80  A    between atoms: _232  and  _234
REMARK   81  A    between atoms: _234  and  _235
REMARK   82  A    between atoms: _234  and  _237
REMARK   83  A    between atoms: _240  and  _242
REMARK   84  A    between atoms: _242  and  _243
REMARK   85  A    between atoms: _242  and  _245
REMARK   86  A    between atoms: _245  and  _246
REMARK   87  A    between atoms: _249  and  _251
REMARK   88  A    between atoms: _251  and  _252
REMARK   89  A    between atoms: _255  and  _257
REMARK   90  A    between atoms: _257  and  _258
REMARK   91  A    between atoms: _257  and  _260
REMARK   92  A    between atoms: _263  and  _265
REMARK   93  A    between atoms: _265  and  _266
REMARK   94  A    between atoms: _265  and  _268
REMARK   95  A    between atoms: _268  and  _269
REMARK   96  A    between atoms: _272  and  _274
REMARK   97  A    between atoms: _274  and  _275
REMARK   98  A    between atoms: _277  and  _279
REMARK   99  A    between atoms: _279  and  _280
REMARK  100  A    between atoms: _279  and  _282
REMARK  101  A    between atoms: _282  and  _283
REMARK  102  A    between atoms: _285  and  _287
REMARK  103  A    between atoms: _287  and  _288
REMARK  104  A    between atoms: _287  and  _290
REMARK  105  A    between atoms: _290  and  _291
REMARK  106  A    between atoms: _294  and  _296
REMARK  107  A    between atoms: _296  and  _297
REMARK  108  A    between atoms: _296  and  _299
REMARK  109  A    between atoms: _299  and  _300
REMARK  110  A    between atoms: _303  and  _305
REMARK  111  A    between atoms: _305  and  _306
REMARK  112  A    between atoms: _305  and  _308
REMARK  113  A    between atoms: _308  and  _309
REMARK  114  A    between atoms: _313  and  _314
REMARK  115  A    between atoms: _320  and  _321
REMARK  116  A    between atoms: _326  and  _328
REMARK  117  A    between atoms: _328  and  _329
REMARK  118  A    between atoms: _328  and  _331
REMARK  119  A    between atoms: _331  and  _332
REMARK  120  A    between atoms: _335  and  _337
REMARK  121  A    between atoms: _337  and  _338
REMARK  122  A    between atoms: _337  and  _340
REMARK  123  A    between atoms: _340  and  _341
REMARK  124  A    between atoms: _344  and  _346
REMARK  125  A    between atoms: _346  and  _347
REMARK  126  A    between atoms: _346  and  _349
REMARK  127  A    between atoms: _351  and  _353
REMARK  128  A    between atoms: _353  and  _354
REMARK  129  A    between atoms: _353  and  _356
REMARK  130  A    between atoms: _359  and  _361
REMARK  131  A    between atoms: _361  and  _362
REMARK  132  A    between atoms: _361  and  _364
REMARK  133  A    between atoms: _364  and  _365
REMARK  134  A    between atoms: _375  and  _377
REMARK  135  A    between atoms: _377  and  _378
REMARK  136  A    between atoms: _377  and  _380
REMARK  137  A    between atoms: _380  and  _381
REMARK  138  A    between atoms: _386  and  _388
REMARK  139  A    between atoms: _388  and  _389
REMARK  140  A    between atoms: _388  and  _391
REMARK  141  A    between atoms: _391  and  _392
REMARK  142  A    between atoms: _392  and  _393
REMARK  143  A    between atoms: _393  and  _394
REMARK                            x       y       z     vdW  Elec       q    Type
REMARK                         _______ _______ _______ _____ _____    ______ ____
ROOT
ATOM      1  C   GLU A   1      -6.058  -8.939  21.100  0.00  0.00    +0.238 C 
ATOM      2  O   GLU A   1      -5.255  -9.485  21.845  0.00  0.00    -0.274 OA
ATOM      3  N   HIS A   2      -7.261  -8.531  21.519  0.00  0.00    -0.298 N 
ATOM      4  H   HIS A   2      -7.886  -7.988  20.890  0.00  0.00    +0.150 HD
ENDROOT
BRANCH   1   5
ATOM      5  CA  GLU A   1      -5.765  -8.725  19.616  0.00  0.00    +0.145 C 
BRANCH   5   6
ATOM      6  N   GLU A   1      -6.786  -9.391  18.815  0.00  0.00    -0.238 NA
ATOM      7  H   GLU A   1      -7.647  -8.864  18.566  0.00  0.00    +0.142 HD
ENDBRANCH   5   6
BRANCH   5   8
ATOM      8  CB  GLU A   1      -5.729  -7.229  19.266  0.00  0.00    +0.038 C 
BRANCH   8   9
ATOM      9  CG  GLU A   1      -5.312  -7.052  17.798  0.00  0.00    +0.116 C 
BRANCH   9  10
ATOM     10  CD  GLU A   1      -4.522  -5.777  17.577  0.00  0.00    +0.365 C 
ATOM     11  OE2 GLU A   1      -5.061  -4.673  17.829  0.00  0.00    -0.246 OA
ATOM     12  OE1 GLU A   1      -3.355  -5.916  17.149  0.00  0.00    -0.246 OA
ENDBRANCH   9  10
ENDBRANCH   8   9
ENDBRANCH   5   8
ENDBRANCH   1   5
BRANCH   3  13
ATOM     13  CA  HIS A   2      -7.676  -8.863  22.871  0.00  0.00    +0.143 C 
BRANCH  13  14
ATOM     14  C   HIS A   2      -7.955 -10.355  22.926  0.00  0.00    +0.227 C 
ATOM     15  O   HIS A   2      -8.306 -10.930  21.900  0.00  0.00    -0.286 OA
ENDBRANCH  13  14
BRANCH  13  16
ATOM     16  CB  HIS A   2      -8.921  -8.066  23.271  0.00  0.00    +0.075 C 
BRANCH  16  17
ATOM     17  CG  HIS A   2      -8.588  -6.619  23.468  0.00  0.00    +0.082 A 
ATOM     18  CD2 HIS A   2      -8.114  -5.912  24.520  0.00  0.00    +0.115 A 
ATOM     19  NE2 HIS A   2      -7.970  -4.594  24.142  0.00  0.00    -0.221 NA
ATOM     20  CE1 HIS A   2      -8.340  -4.513  22.868  0.00  0.00    +0.199 A 
ATOM     21  ND1 HIS A   2      -8.717  -5.716  22.437  0.00  0.00    -0.227 NA
ENDBRANCH  16  17
ENDBRANCH  13  16
ENDBRANCH   3  13
TORSDOF 9
REMARK  Name = ../refined-set-2016/3d9z/3d9z_pocket.pdb
REMARK  143 active torsions:
REMARK  status: ('A' for Active; 'I' for Inactive)
REMARK    1  A    between atoms: _1  and  _3
REMARK    2  A    between atoms: _3  and  _4
REMARK    3  A    between atoms: _3  and  _6
REMARK    4  A    between atoms: _6  and  _7
REMARK    5  A    between atoms: _17  and  _19
REMARK    6  A    between atoms: _19  and  _20
REMARK    7  A    between atoms: _19  and  _22
REMARK    8  A    between atoms: _22  and  _23
REMARK    9  A    between atoms: _28  and  _29
REMARK   10  A    between atoms: _31  and  _33
REMARK   11  A    between atoms: _33  and  _34
REMARK   12  A    between atoms: _33  and  _36
REMARK   13  A    between atoms: _36  and  _37
REMARK   14  A    between atoms: _40  and  _41
REMARK   15  A    between atoms: _46  and  _48
REMARK   16  A    between atoms: _48  and  _49
REMARK   17  A    between atoms: _48  and  _51
REMARK   18  A    between atoms: _51  and  _52
REMARK   19  A    between atoms: _57  and  _59
REMARK   20  A    between atoms: _59  and  _60
REMARK   21  A    between atoms: _63  and  _65
REMARK   22  A    between atoms: _65  and  _66
REMARK   23  A    between atoms: _65  and  _68
REMARK   24  A    between atoms: _68  and  _69
REMARK   25  A    between atoms: _74  and  _76
REMARK   26  A    between atoms: _76  and  _77
REMARK   27  A    between atoms: _76  and  _79
REMARK   28  A    between atoms: _79  and  _80
REMARK   29  A    between atoms: _83  and  _85
REMARK   30  A    between atoms: _85  and  _86
REMARK   31  A    between atoms: _85  and  _88
REMARK   32  A    between atoms: _88  and  _89
REMARK   33  A    between atoms: _89  and  _90
REMARK   34  A    between atoms: _95  and  _97
REMARK   35  A    between atoms: _97  and  _98
REMARK   36  A    between atoms: _97  and  _100
REMARK   37  A    between atoms: _100  and  _101
REMARK   38  A    between atoms: _107  and  _109
REMARK   39  A    between atoms: _120  and  _123
REMARK   40  A    between atoms: _123  and  _124
REMARK   41  A    between atoms: _132  and  _133
REMARK   42  A    between atoms: _141  and  _143
REMARK   43  A    between atoms: _143  and  _144
REMARK   44  A    between atoms: _143  and  _146
REMARK   45  A    between atoms: _146  and  _147
REMARK   46  A    between atoms: _147  and  _148
REMARK   47  A    between atoms: _151  and  _153
REMARK   48  A    between atoms: _153  and  _154
REMARK   49  A    between atoms: _153  and  _156
REMARK   50  A    between atoms: _156  and  _157
REMARK   51  A    between atoms: _162  and  _164
REMARK   52  A    between atoms: _164  and  _165
REMARK   53  A    between atoms: _164  and  _167
REMARK   54  A    between atoms: _167  and  _168
REMARK   55  A    between atoms: _168  and  _169
REMARK   56  A    between atoms: _172  and  _174
REMARK   57  A    between atoms: _174  and  _175
REMARK   58  A    between atoms: _174  and  _177
REMARK   59  A    between atoms: _177  and  _178
REMARK   60  A    between atoms: _181  and  _183
REMARK   61  A    between atoms: _183  and  _184
REMARK   62  A    between atoms: _183  and  _186
REMARK   63  A    between atoms: _186  and  _187
REMARK   64  A    between atoms: _188  and  ZN_403
REMARK   65  A    between atoms: _192  and  _194
REMARK   66  A    between atoms: _194  and  _195
REMARK   67  A    between atoms: _194  and  _197
REMARK   68  A    between atoms: _197  and  _198
REMARK   69  A    between atoms: _201  and  _203
REMARK   70  A    between atoms: _203  and  _204
REMARK   71  A    between atoms: _203  and  _206
REMARK   72  A    between atoms: _209  and  _211
REMARK   73  A    between atoms: _211  and  _212
REMARK   74  A    between atoms: _211  and  _214
REMARK   75  A    between atoms: _214  and  _215
REMARK   76  A    between atoms: _220  and  _222
REMARK   77  A    between atoms: _222  and  _223
REMARK   78  A    between atoms: _222  and  _225
REMARK   79  A    between atoms: _225  and  _226
REMARK   80  A    between atoms: _232  and  _234
REMARK   81  A    between atoms: _234  and  _235
REMARK   82  A    between atoms: _234  and  _237
REMARK   83  A    between atoms: _240  and  _242
REMARK   84  A    between atoms: _242  and  _243
REMARK   85  A    between atoms: _242  and  _245
REMARK   86  A    between atoms: _245  and  _246
REMARK   87  A    between atoms: _249  and  _251
REMARK   88  A    between atoms: _251  and  _252
REMARK   89  A    between atoms: _255  and  _257
REMARK   90  A    between atoms: _257  and  _258
REMARK   91  A    between atoms: _257  and  _260
REMARK   92  A    between atoms: _263  and  _265
REMARK   93  A    between atoms: _265  and  _266
REMARK   94  A    between atoms: _265  and  _268
REMARK   95  A    between atoms: _268  and  _269
REMARK   96  A    between atoms: _272  and  _274
REMARK   97  A    between atoms: _274  and  _275
REMARK   98  A    between atoms: _277  and  _279
REMARK   99  A    between atoms: _279  and  _280
REMARK  100  A    between atoms: _279  and  _282
REMARK  101  A    between atoms: _282  and  _283
REMARK  102  A    between atoms: _285  and  _287
REMARK  103  A    between atoms: _287  and  _288
REMARK  104  A    between atoms: _287  and  _290
REMARK  105  A    between atoms: _290  and  _291
REMARK  106  A    between atoms: _294  and  _296
REMARK  107  A    between atoms: _296  and  _297
REMARK  108  A    between atoms: _296  and  _299
REMARK  109  A    between atoms: _299  and  _300
REMARK  110  A    between atoms: _303  and  _305
REMARK  111  A    between atoms: _305  and  _306
REMARK  112  A    between atoms: _305  and  _308
REMARK  113  A    between atoms: _308  and  _309
REMARK  114  A    between atoms: _313  and  _314
REMARK  115  A    between atoms: _320  and  _321
REMARK  116  A    between atoms: _326  and  _328
REMARK  117  A    between atoms: _328  and  _329
REMARK  118  A    between atoms: _328  and  _331
REMARK  119  A    between atoms: _331  and  _332
REMARK  120  A    between atoms: _335  and  _337
REMARK  121  A    between atoms: _337  and  _338
REMARK  122  A    between atoms: _337  and  _340
REMARK  123  A    between atoms: _340  and  _341
REMARK  124  A    between atoms: _344  and  _346
REMARK  125  A    between atoms: _346  and  _347
REMARK  126  A    between atoms: _346  and  _349
REMARK  127  A    between atoms: _351  and  _353
REMARK  128  A    between atoms: _353  and  _354
REMARK  129  A    between atoms: _353  and  _356
REMARK  130  A    between atoms: _359  and  _361
REMARK  131  A    between atoms: _361  and  _362
REMARK  132  A    between atoms: _361  and  _364
REMARK  133  A    between atoms: _364  and  _365
REMARK  134  A    between atoms: _375  and  _377
REMARK  135  A    between atoms: _377  and  _378
REMARK  136  A    between atoms: _377  and  _380
REMARK  137  A    between atoms: _380  and  _381
REMARK  138  A    between atoms: _386  and  _388
REMARK  139  A    between atoms: _388  and  _389
REMARK  140  A    between atoms: _388  and  _391
REMARK  141  A    between atoms: _391  and  _392
REMARK  142  A    between atoms: _392  and  _393
REMARK  143  A    between atoms: _393  and  _394
REMARK                            x       y       z     vdW  Elec       q    Type
REMARK                         _______ _______ _______ _____ _____    ______ ____
ROOT
ATOM      1  CB  PHE A   1      -7.843  12.628  14.092  0.00  0.00    +0.000 C 
ENDROOT
BRANCH   1   2
ATOM      2  CG  PHE A   1      -7.248  11.264  14.408  0.00  0.00    +0.000 A 
ATOM      3  CD2 PHE A   1      -8.030  10.319  15.060  0.00  0.00    +0.000 A 
ATOM      4  CE2 PHE A   1      -7.499   9.081  15.364  0.00  0.00    +0.000 A 
ATOM      5  CZ  PHE A   1      -6.190   8.777  15.047  0.00  0.00    +0.000 A 
ATOM      6  CE1 PHE A   1      -5.402   9.701  14.381  0.00  0.00    +0.000 A 
ATOM      7  CD1 PHE A   1      -5.937  10.932  14.052  0.00  0.00    +0.000 A 
ENDBRANCH   1   2
BRANCH   1   8
ATOM      8  CA  PHE A   1      -7.745  13.610  15.271  0.00  0.00    +0.000 C 
BRANCH   8   9
ATOM      9  N   PHE A   1      -8.277  14.904  14.878  0.00  0.00    +0.000 NA
ATOM     10  H   PHE A   1      -8.622  15.012  13.903  0.00  0.00    +0.000 HD
ENDBRANCH   8   9
BRANCH   8  11
ATOM     11  C   PHE A   1      -6.298  13.710  15.754  0.00  0.00    +0.000 C 
ATOM     12  O   PHE A   1      -5.913  13.032  16.722  0.00  0.00    +0.000 OA
ENDBRANCH   8  11
ENDBRANCH   1   8
TORSDOF 4
REMARK  Name = ../refined-set-2016/3d9z/3d9z_pocket.pdb
REMARK  143 active torsions:
REMARK  status: ('A' for Active; 'I' for Inactive)
REMARK    1  A    between atoms: _1  and  _3
REMARK    2  A    between atoms: _3  and  _4
REMARK    3  A    between atoms: _3  and  _6
REMARK    4  A    between atoms: _6  and  _7
REMARK    5  A    between atoms: _17  and  _19
REMARK    6  A    between atoms: _19  and  _20
REMARK    7  A    between atoms: _19  and  _22
REMARK    8  A    between atoms: _22  and  _23
REMARK    9  A    between atoms: _28  and  _29
REMARK   10  A    between atoms: _31  and  _33
REMARK   11  A    between atoms: _33  and  _34
REMARK   12  A    between atoms: _33  and  _36
REMARK   13  A    between atoms: _36  and  _37
REMARK   14  A    between atoms: _40  and  _41
REMARK   15  A    between atoms: _46  and  _48
REMARK   16  A    between atoms: _48  and  _49
REMARK   17  A    between atoms: _48  and  _51
REMARK   18  A    between atoms: _51  and  _52
REMARK   19  A    between atoms: _57  and  _59
REMARK   20  A    between atoms: _59  and  _60
REMARK   21  A    between atoms: _63  and  _65
REMARK   22  A    between atoms: _65  and  _66
REMARK   23  A    between atoms: _65  and  _68
REMARK   24  A    between atoms: _68  and  _69
REMARK   25  A    between atoms: _74  and  _76
REMARK   26  A    between atoms: _76  and  _77
REMARK   27  A    between atoms: _76  and  _79
REMARK   28  A    between atoms: _79  and  _80
REMARK   29  A    between atoms: _83  and  _85
REMARK   30  A    between atoms: _85  and  _86
REMARK   31  A    between atoms: _85  and  _88
REMARK   32  A    between atoms: _88  and  _89
REMARK   33  A    between atoms: _89  and  _90
REMARK   34  A    between atoms: _95  and  _97
REMARK   35  A    between atoms: _97  and  _98
REMARK   36  A    between atoms: _97  and  _100
REMARK   37  A    between atoms: _100  and  _101
REMARK   38  A    between atoms: _107  and  _109
REMARK   39  A    between atoms: _120  and  _123
REMARK   40  A    between atoms: _123  and  _124
REMARK   41  A    between atoms: _132  and  _133
REMARK   42  A    between atoms: _141  and  _143
REMARK   43  A    between atoms: _143  and  _144
REMARK   44  A    between atoms: _143  and  _146
REMARK   45  A    between atoms: _146  and  _147
REMARK   46  A    between atoms: _147  and  _148
REMARK   47  A    between atoms: _151  and  _153
REMARK   48  A    between atoms: _153  and  _154
REMARK   49  A    between atoms: _153  and  _156
REMARK   50  A    between atoms: _156  and  _157
REMARK   51  A    between atoms: _162  and  _164
REMARK   52  A    between atoms: _164  and  _165
REMARK   53  A    between atoms: _164  and  _167
REMARK   54  A    between atoms: _167  and  _168
REMARK   55  A    between atoms: _168  and  _169
REMARK   56  A    between atoms: _172  and  _174
REMARK   57  A    between atoms: _174  and  _175
REMARK   58  A    between atoms: _174  and  _177
REMARK   59  A    between atoms: _177  and  _178
REMARK   60  A    between atoms: _181  and  _183
REMARK   61  A    between atoms: _183  and  _184
REMARK   62  A    between atoms: _183  and  _186
REMARK   63  A    between atoms: _186  and  _187
REMARK   64  A    between atoms: _188  and  ZN_403
REMARK   65  A    between atoms: _192  and  _194
REMARK   66  A    between atoms: _194  and  _195
REMARK   67  A    between atoms: _194  and  _197
REMARK   68  A    between atoms: _197  and  _198
REMARK   69  A    between atoms: _201  and  _203
REMARK   70  A    between atoms: _203  and  _204
REMARK   71  A    between atoms: _203  and  _206
REMARK   72  A    between atoms: _209  and  _211
REMARK   73  A    between atoms: _211  and  _212
REMARK   74  A    between atoms: _211  and  _214
REMARK   75  A    between atoms: _214  and  _215
REMARK   76  A    between atoms: _220  and  _222
REMARK   77  A    between atoms: _222  and  _223
REMARK   78  A    between atoms: _222  and  _225
REMARK   79  A    between atoms: _225  and  _226
REMARK   80  A    between atoms: _232  and  _234
REMARK   81  A    between atoms: _234  and  _235
REMARK   82  A    between atoms: _234  and  _237
REMARK   83  A    between atoms: _240  and  _242
REMARK   84  A    between atoms: _242  and  _243
REMARK   85  A    between atoms: _242  and  _245
REMARK   86  A    between atoms: _245  and  _246
REMARK   87  A    between atoms: _249  and  _251
REMARK   88  A    between atoms: _251  and  _252
REMARK   89  A    between atoms: _255  and  _257
REMARK   90  A    between atoms: _257  and  _258
REMARK   91  A    between atoms: _257  and  _260
REMARK   92  A    between atoms: _263  and  _265
REMARK   93  A    between atoms: _265  and  _266
REMARK   94  A    between atoms: _265  and  _268
REMARK   95  A    between atoms: _268  and  _269
REMARK   96  A    between atoms: _272  and  _274
REMARK   97  A    between atoms: _274  and  _275
REMARK   98  A    between atoms: _277  and  _279
REMARK   99  A    between atoms: _279  and  _280
REMARK  100  A    between atoms: _279  and  _282
REMARK  101  A    between atoms: _282  and  _283
REMARK  102  A    between atoms: _285  and  _287
REMARK  103  A    between atoms: _287  and  _288
REMARK  104  A    between atoms: _287  and  _290
REMARK  105  A    between atoms: _290  and  _291
REMARK  106  A    between atoms: _294  and  _296
REMARK  107  A    between atoms: _296  and  _297
REMARK  108  A    between atoms: _296  and  _299
REMARK  109  A    between atoms: _299  and  _300
REMARK  110  A    between atoms: _303  and  _305
REMARK  111  A    between atoms: _305  and  _306
REMARK  112  A    between atoms: _305  and  _308
REMARK  113  A    between atoms: _308  and  _309
REMARK  114  A    between atoms: _313  and  _314
REMARK  115  A    between atoms: _320  and  _321
REMARK  116  A    between atoms: _326  and  _328
REMARK  117  A    between atoms: _328  and  _329
REMARK  118  A    between atoms: _328  and  _331
REMARK  119  A    between atoms: _331  and  _332
REMARK  120  A    between atoms: _335  and  _337
REMARK  121  A    between atoms: _337  and  _338
REMARK  122  A    between atoms: _337  and  _340
REMARK  123  A    between atoms: _340  and  _341
REMARK  124  A    between atoms: _344  and  _346
REMARK  125  A    between atoms: _346  and  _347
REMARK  126  A    between atoms: _346  and  _349
REMARK  127  A    between atoms: _351  and  _353
REMARK  128  A    between atoms: _353  and  _354
REMARK  129  A    between atoms: _353  and  _356
REMARK  130  A    between atoms: _359  and  _361
REMARK  131  A    between atoms: _361  and  _362
REMARK  132  A    between atoms: _361  and  _364
REMARK  133  A    between atoms: _364  and  _365
REMARK  134  A    between atoms: _375  and  _377
REMARK  135  A    between atoms: _377  and  _378
REMARK  136  A    between atoms: _377  and  _380
REMARK  137  A    between atoms: _380  and  _381
REMARK  138  A    between atoms: _386  and  _388
REMARK  139  A    between atoms: _388  and  _389
REMARK  140  A    between atoms: _388  and  _391
REMARK  141  A    between atoms: _391  and  _392
REMARK  142  A    between atoms: _392  and  _393
REMARK  143  A    between atoms: _393  and  _394
REMARK                            x       y       z     vdW  Elec       q    Type
REMARK                         _______ _______ _______ _____ _____    ______ ____
ROOT
ATOM      1  CA  VAL A   1      -4.120  11.234  19.899  0.00  0.00    +0.000 C 
ENDROOT
BRANCH   1   2
ATOM      2  CB  VAL A   1      -3.398  10.586  18.689  0.00  0.00    +0.000 C 
ATOM      3  CG2 VAL A   1      -2.585  11.620  17.918  0.00  0.00    +0.000 C 
ATOM      4  CG1 VAL A   1      -4.372   9.873  17.776  0.00  0.00    +0.000 C 
ENDBRANCH   1   2
BRANCH   1   5
ATOM      5  N   VAL A   1      -5.006  12.357  19.561  0.00  0.00    +0.000 NA
ATOM      6  H   VAL A   1      -4.963  12.780  18.612  0.00  0.00    +0.000 HD
ENDBRANCH   1   5
BRANCH   1   7
ATOM      7  C   VAL A   1      -3.038  11.623  20.913  0.00  0.00    +0.000 C 
ATOM      8  O   VAL A   1      -2.352  10.758  21.464  0.00  0.00    +0.000 OA
ENDBRANCH   1   7
TORSDOF 3
REMARK  Name = ../refined-set-2016/3d9z/3d9z_pocket.pdb
REMARK  143 active torsions:
REMARK  status: ('A' for Active; 'I' for Inactive)
REMARK    1  A    between atoms: _1  and  _3
REMARK    2  A    between atoms: _3  and  _4
REMARK    3  A    between atoms: _3  and  _6
REMARK    4  A    between atoms: _6  and  _7
REMARK    5  A    between atoms: _17  and  _19
REMARK    6  A    between atoms: _19  and  _20
REMARK    7  A    between atoms: _19  and  _22
REMARK    8  A    between atoms: _22  and  _23
REMARK    9  A    between atoms: _28  and  _29
REMARK   10  A    between atoms: _31  and  _33
REMARK   11  A    between atoms: _33  and  _34
REMARK   12  A    between atoms: _33  and  _36
REMARK   13  A    between atoms: _36  and  _37
REMARK   14  A    between atoms: _40  and  _41
REMARK   15  A    between atoms: _46  and  _48
REMARK   16  A    between atoms: _48  and  _49
REMARK   17  A    between atoms: _48  and  _51
REMARK   18  A    between atoms: _51  and  _52
REMARK   19  A    between atoms: _57  and  _59
REMARK   20  A    between atoms: _59  and  _60
REMARK   21  A    between atoms: _63  and  _65
REMARK   22  A    between atoms: _65  and  _66
REMARK   23  A    between atoms: _65  and  _68
REMARK   24  A    between atoms: _68  and  _69
REMARK   25  A    between atoms: _74  and  _76
REMARK   26  A    between atoms: _76  and  _77
REMARK   27  A    between atoms: _76  and  _79
REMARK   28  A    between atoms: _79  and  _80
REMARK   29  A    between atoms: _83  and  _85
REMARK   30  A    between atoms: _85  and  _86
REMARK   31  A    between atoms: _85  and  _88
REMARK   32  A    between atoms: _88  and  _89
REMARK   33  A    between atoms: _89  and  _90
REMARK   34  A    between atoms: _95  and  _97
REMARK   35  A    between atoms: _97  and  _98
REMARK   36  A    between atoms: _97  and  _100
REMARK   37  A    between atoms: _100  and  _101
REMARK   38  A    between atoms: _107  and  _109
REMARK   39  A    between atoms: _120  and  _123
REMARK   40  A    between atoms: _123  and  _124
REMARK   41  A    between atoms: _132  and  _133
REMARK   42  A    between atoms: _141  and  _143
REMARK   43  A    between atoms: _143  and  _144
REMARK   44  A    between atoms: _143  and  _146
REMARK   45  A    between atoms: _146  and  _147
REMARK   46  A    between atoms: _147  and  _148
REMARK   47  A    between atoms: _151  and  _153
REMARK   48  A    between atoms: _153  and  _154
REMARK   49  A    between atoms: _153  and  _156
REMARK   50  A    between atoms: _156  and  _157
REMARK   51  A    between atoms: _162  and  _164
REMARK   52  A    between atoms: _164  and  _165
REMARK   53  A    between atoms: _164  and  _167
REMARK   54  A    between atoms: _167  and  _168
REMARK   55  A    between atoms: _168  and  _169
REMARK   56  A    between atoms: _172  and  _174
REMARK   57  A    between atoms: _174  and  _175
REMARK   58  A    between atoms: _174  and  _177
REMARK   59  A    between atoms: _177  and  _178
REMARK   60  A    between atoms: _181  and  _183
REMARK   61  A    between atoms: _183  and  _184
REMARK   62  A    between atoms: _183  and  _186
REMARK   63  A    between atoms: _186  and  _187
REMARK   64  A    between atoms: _188  and  ZN_403
REMARK   65  A    between atoms: _192  and  _194
REMARK   66  A    between atoms: _194  and  _195
REMARK   67  A    between atoms: _194  and  _197
REMARK   68  A    between atoms: _197  and  _198
REMARK   69  A    between atoms: _201  and  _203
REMARK   70  A    between atoms: _203  and  _204
REMARK   71  A    between atoms: _203  and  _206
REMARK   72  A    between atoms: _209  and  _211
REMARK   73  A    between atoms: _211  and  _212
REMARK   74  A    between atoms: _211  and  _214
REMARK   75  A    between atoms: _214  and  _215
REMARK   76  A    between atoms: _220  and  _222
REMARK   77  A    between atoms: _222  and  _223
REMARK   78  A    between atoms: _222  and  _225
REMARK   79  A    between atoms: _225  and  _226
REMARK   80  A    between atoms: _232  and  _234
REMARK   81  A    between atoms: _234  and  _235
REMARK   82  A    between atoms: _234  and  _237
REMARK   83  A    between atoms: _240  and  _242
REMARK   84  A    between atoms: _242  and  _243
REMARK   85  A    between atoms: _242  and  _245
REMARK   86  A    between atoms: _245  and  _246
REMARK   87  A    between atoms: _249  and  _251
REMARK   88  A    between atoms: _251  and  _252
REMARK   89  A    between atoms: _255  and  _257
REMARK   90  A    between atoms: _257  and  _258
REMARK   91  A    between atoms: _257  and  _260
REMARK   92  A    between atoms: _263  and  _265
REMARK   93  A    between atoms: _265  and  _266
REMARK   94  A    between atoms: _265  and  _268
REMARK   95  A    between atoms: _268  and  _269
REMARK   96  A    between atoms: _272  and  _274
REMARK   97  A    between atoms: _274  and  _275
REMARK   98  A    between atoms: _277  and  _279
REMARK   99  A    between atoms: _279  and  _280
REMARK  100  A    between atoms: _279  and  _282
REMARK  101  A    between atoms: _282  and  _283
REMARK  102  A    between atoms: _285  and  _287
REMARK  103  A    between atoms: _287  and  _288
REMARK  104  A    between atoms: _287  and  _290
REMARK  105  A    between atoms: _290  and  _291
REMARK  106  A    between atoms: _294  and  _296
REMARK  107  A    between atoms: _296  and  _297
REMARK  108  A    between atoms: _296  and  _299
REMARK  109  A    between atoms: _299  and  _300
REMARK  110  A    between atoms: _303  and  _305
REMARK  111  A    between atoms: _305  and  _306
REMARK  112  A    between atoms: _305  and  _308
REMARK  113  A    between atoms: _308  and  _309
REMARK  114  A    between atoms: _313  and  _314
REMARK  115  A    between atoms: _320  and  _321
REMARK  116  A    between atoms: _326  and  _328
REMARK  117  A    between atoms: _328  and  _329
REMARK  118  A    between atoms: _328  and  _331
REMARK  119  A    between atoms: _331  and  _332
REMARK  120  A    between atoms: _335  and  _337
REMARK  121  A    between atoms: _337  and  _338
REMARK  122  A    between atoms: _337  and  _340
REMARK  123  A    between atoms: _340  and  _341
REMARK  124  A    between atoms: _344  and  _346
REMARK  125  A    between atoms: _346  and  _347
REMARK  126  A    between atoms: _346  and  _349
REMARK  127  A    between atoms: _351  and  _353
REMARK  128  A    between atoms: _353  and  _354
REMARK  129  A    between atoms: _353  and  _356
REMARK  130  A    between atoms: _359  and  _361
REMARK  131  A    between atoms: _361  and  _362
REMARK  132  A    between atoms: _361  and  _364
REMARK  133  A    between atoms: _364  and  _365
REMARK  134  A    between atoms: _375  and  _377
REMARK  135  A    between atoms: _377  and  _378
REMARK  136  A    between atoms: _377  and  _380
REMARK  137  A    between atoms: _380  and  _381
REMARK  138  A    between atoms: _386  and  _388
REMARK  139  A    between atoms: _388  and  _389
REMARK  140  A    between atoms: _388  and  _391
REMARK  141  A    between atoms: _391  and  _392
REMARK  142  A    between atoms: _392  and  _393
REMARK  143  A    between atoms: _393  and  _394
REMARK                            x       y       z     vdW  Elec       q    Type
REMARK                         _______ _______ _______ _____ _____    ______ ____
ROOT
ATOM      1  C   ALA A   2     -12.461   4.550  20.928  0.00  0.00    +0.000 C 
ATOM      2  N   VAL A   3     -12.023   3.342  21.234  0.00  0.00    +0.000 N 
ATOM      3  H   VAL A   3     -11.666   3.114  22.184  0.00  0.00    +0.000 HD
ATOM      4  O   ALA A   2     -12.879   4.858  19.810  0.00  0.00    +0.000 OA
ENDROOT
BRANCH   1   5
ATOM      5  CA  ALA A   2     -12.386   5.579  22.045  0.00  0.00    +0.000 C 
ATOM      6  CB  ALA A   2     -13.741   6.011  22.560  0.00  0.00    +0.000 C 
BRANCH   5   9
ATOM      7  C   LEU A   1     -10.615   7.227  22.201  0.00  0.00    +0.000 C 
ATOM      8  O   LEU A   1     -10.404   6.950  23.380  0.00  0.00    +0.000 OA
ATOM      9  N   ALA A   2     -11.612   6.699  21.496  0.00  0.00    +0.000 N 
ATOM     10  H   ALA A   2     -11.843   7.080  20.556  0.00  0.00    +0.000 HD
BRANCH   7  11
ATOM     11  CA  LEU A   1      -9.750   8.198  21.405  0.00  0.00    +0.000 C 
BRANCH  11  12
ATOM     12  N   LEU A   1      -9.117   9.167  22.294  0.00  0.00    +0.000 NA
ATOM     13  H   LEU A   1      -8.501   8.815  23.054  0.00  0.00    +0.000 HD
ENDBRANCH  11  12
BRANCH  11  14
ATOM     14  CB  LEU A   1      -8.717   7.379  20.644  0.00  0.00    +0.000 C 
BRANCH  14  15
ATOM     15  CG  LEU A   1      -7.747   8.051  19.676  0.00  0.00    +0.000 C 
ATOM     16  CD2 LEU A   1      -8.302   9.233  18.909  0.00  0.00    +0.000 C 
ATOM     17  CD1 LEU A   1      -7.214   7.016  18.669  0.00  0.00    +0.000 C 
ENDBRANCH  14  15
ENDBRANCH  11  14
ENDBRANCH   7  11
ENDBRANCH   5   9
ENDBRANCH   1   5
BRANCH   2  18
ATOM     18  CA  VAL A   3     -12.066   2.334  20.158  0.00  0.00    +0.000 C 
BRANCH  18  19
ATOM     19  C   VAL A   3     -13.065   1.269  20.580  0.00  0.00    +0.000 C 
ATOM     20  O   VAL A   3     -12.902   0.759  21.686  0.00  0.00    +0.000 OA
ATOM     21  N   LEU A   4     -14.044   0.991  19.740  0.00  0.00    +0.000 N 
ATOM     22  H   LEU A   4     -14.137   1.551  18.869  0.00  0.00    +0.000 HD
BRANCH  21  23
ATOM     23  CA  LEU A   4     -14.997  -0.078  20.000  0.00  0.00    +0.000 C 
BRANCH  23  24
ATOM     24  C   LEU A   4     -14.429  -1.366  19.416  0.00  0.00    +0.000 C 
ATOM     25  O   LEU A   4     -14.160  -1.397  18.209  0.00  0.00    +0.000 OA
ENDBRANCH  23  24
BRANCH  23  26
ATOM     26  CB  LEU A   4     -16.327   0.254  19.332  0.00  0.00    +0.000 C 
BRANCH  26  27
ATOM     27  CG  LEU A   4     -17.654  -0.286  19.825  0.00  0.00    +0.000 C 
ATOM     28  CD2 LEU A   4     -17.901   0.105  21.273  0.00  0.00    +0.000 C 
ATOM     29  CD1 LEU A   4     -18.788   0.232  18.943  0.00  0.00    +0.000 C 
ENDBRANCH  26  27
ENDBRANCH  23  26
ENDBRANCH  21  23
ENDBRANCH  18  19
BRANCH  18  30
ATOM     30  CB  VAL A   3     -10.698   1.702  19.868  0.00  0.00    +0.000 C 
ATOM     31  CG2 VAL A   3      -9.700   2.771  19.462  0.00  0.00    +0.000 C 
ATOM     32  CG1 VAL A   3     -10.847   0.637  18.777  0.00  0.00    +0.000 C 
ENDBRANCH  18  30
ENDBRANCH   2  18
TORSDOF 13
REMARK  Name = ../refined-set-2016/3d9z/3d9z_pocket.pdb
REMARK  143 active torsions:
REMARK  status: ('A' for Active; 'I' for Inactive)
REMARK    1  A    between atoms: _1  and  _3
REMARK    2  A    between atoms: _3  and  _4
REMARK    3  A    between atoms: _3  and  _6
REMARK    4  A    between atoms: _6  and  _7
REMARK    5  A    between atoms: _17  and  _19
REMARK    6  A    between atoms: _19  and  _20
REMARK    7  A    between atoms: _19  and  _22
REMARK    8  A    between atoms: _22  and  _23
REMARK    9  A    between atoms: _28  and  _29
REMARK   10  A    between atoms: _31  and  _33
REMARK   11  A    between atoms: _33  and  _34
REMARK   12  A    between atoms: _33  and  _36
REMARK   13  A    between atoms: _36  and  _37
REMARK   14  A    between atoms: _40  and  _41
REMARK   15  A    between atoms: _46  and  _48
REMARK   16  A    between atoms: _48  and  _49
REMARK   17  A    between atoms: _48  and  _51
REMARK   18  A    between atoms: _51  and  _52
REMARK   19  A    between atoms: _57  and  _59
REMARK   20  A    between atoms: _59  and  _60
REMARK   21  A    between atoms: _63  and  _65
REMARK   22  A    between atoms: _65  and  _66
REMARK   23  A    between atoms: _65  and  _68
REMARK   24  A    between atoms: _68  and  _69
REMARK   25  A    between atoms: _74  and  _76
REMARK   26  A    between atoms: _76  and  _77
REMARK   27  A    between atoms: _76  and  _79
REMARK   28  A    between atoms: _79  and  _80
REMARK   29  A    between atoms: _83  and  _85
REMARK   30  A    between atoms: _85  and  _86
REMARK   31  A    between atoms: _85  and  _88
REMARK   32  A    between atoms: _88  and  _89
REMARK   33  A    between atoms: _89  and  _90
REMARK   34  A    between atoms: _95  and  _97
REMARK   35  A    between atoms: _97  and  _98
REMARK   36  A    between atoms: _97  and  _100
REMARK   37  A    between atoms: _100  and  _101
REMARK   38  A    between atoms: _107  and  _109
REMARK   39  A    between atoms: _120  and  _123
REMARK   40  A    between atoms: _123  and  _124
REMARK   41  A    between atoms: _132  and  _133
REMARK   42  A    between atoms: _141  and  _143
REMARK   43  A    between atoms: _143  and  _144
REMARK   44  A    between atoms: _143  and  _146
REMARK   45  A    between atoms: _146  and  _147
REMARK   46  A    between atoms: _147  and  _148
REMARK   47  A    between atoms: _151  and  _153
REMARK   48  A    between atoms: _153  and  _154
REMARK   49  A    between atoms: _153  and  _156
REMARK   50  A    between atoms: _156  and  _157
REMARK   51  A    between atoms: _162  and  _164
REMARK   52  A    between atoms: _164  and  _165
REMARK   53  A    between atoms: _164  and  _167
REMARK   54  A    between atoms: _167  and  _168
REMARK   55  A    between atoms: _168  and  _169
REMARK   56  A    between atoms: _172  and  _174
REMARK   57  A    between atoms: _174  and  _175
REMARK   58  A    between atoms: _174  and  _177
REMARK   59  A    between atoms: _177  and  _178
REMARK   60  A    between atoms: _181  and  _183
REMARK   61  A    between atoms: _183  and  _184
REMARK   62  A    between atoms: _183  and  _186
REMARK   63  A    between atoms: _186  and  _187
REMARK   64  A    between atoms: _188  and  ZN_403
REMARK   65  A    between atoms: _192  and  _194
REMARK   66  A    between atoms: _194  and  _195
REMARK   67  A    between atoms: _194  and  _197
REMARK   68  A    between atoms: _197  and  _198
REMARK   69  A    between atoms: _201  and  _203
REMARK   70  A    between atoms: _203  and  _204
REMARK   71  A    between atoms: _203  and  _206
REMARK   72  A    between atoms: _209  and  _211
REMARK   73  A    between atoms: _211  and  _212
REMARK   74  A    between atoms: _211  and  _214
REMARK   75  A    between atoms: _214  and  _215
REMARK   76  A    between atoms: _220  and  _222
REMARK   77  A    between atoms: _222  and  _223
REMARK   78  A    between atoms: _222  and  _225
REMARK   79  A    between atoms: _225  and  _226
REMARK   80  A    between atoms: _232  and  _234
REMARK   81  A    between atoms: _234  and  _235
REMARK   82  A    between atoms: _234  and  _237
REMARK   83  A    between atoms: _240  and  _242
REMARK   84  A    between atoms: _242  and  _243
REMARK   85  A    between atoms: _242  and  _245
REMARK   86  A    between atoms: _245  and  _246
REMARK   87  A    between atoms: _249  and  _251
REMARK   88  A    between atoms: _251  and  _252
REMARK   89  A    between atoms: _255  and  _257
REMARK   90  A    between atoms: _257  and  _258
REMARK   91  A    between atoms: _257  and  _260
REMARK   92  A    between atoms: _263  and  _265
REMARK   93  A    between atoms: _265  and  _266
REMARK   94  A    between atoms: _265  and  _268
REMARK   95  A    between atoms: _268  and  _269
REMARK   96  A    between atoms: _272  and  _274
REMARK   97  A    between atoms: _274  and  _275
REMARK   98  A    between atoms: _277  and  _279
REMARK   99  A    between atoms: _279  and  _280
REMARK  100  A    between atoms: _279  and  _282
REMARK  101  A    between atoms: _282  and  _283
REMARK  102  A    between atoms: _285  and  _287
REMARK  103  A    between atoms: _287  and  _288
REMARK  104  A    between atoms: _287  and  _290
REMARK  105  A    between atoms: _290  and  _291
REMARK  106  A    between atoms: _294  and  _296
REMARK  107  A    between atoms: _296  and  _297
REMARK  108  A    between atoms: _296  and  _299
REMARK  109  A    between atoms: _299  and  _300
REMARK  110  A    between atoms: _303  and  _305
REMARK  111  A    between atoms: _305  and  _306
REMARK  112  A    between atoms: _305  and  _308
REMARK  113  A    between atoms: _308  and  _309
REMARK  114  A    between atoms: _313  and  _314
REMARK  115  A    between atoms: _320  and  _321
REMARK  116  A    between atoms: _326  and  _328
REMARK  117  A    between atoms: _328  and  _329
REMARK  118  A    between atoms: _328  and  _331
REMARK  119  A    between atoms: _331  and  _332
REMARK  120  A    between atoms: _335  and  _337
REMARK  121  A    between atoms: _337  and  _338
REMARK  122  A    between atoms: _337  and  _340
REMARK  123  A    between atoms: _340  and  _341
REMARK  124  A    between atoms: _344  and  _346
REMARK  125  A    between atoms: _346  and  _347
REMARK  126  A    between atoms: _346  and  _349
REMARK  127  A    between atoms: _351  and  _353
REMARK  128  A    between atoms: _353  and  _354
REMARK  129  A    between atoms: _353  and  _356
REMARK  130  A    between atoms: _359  and  _361
REMARK  131  A    between atoms: _361  and  _362
REMARK  132  A    between atoms: _361  and  _364
REMARK  133  A    between atoms: _364  and  _365
REMARK  134  A    between atoms: _375  and  _377
REMARK  135  A    between atoms: _377  and  _378
REMARK  136  A    between atoms: _377  and  _380
REMARK  137  A    between atoms: _380  and  _381
REMARK  138  A    between atoms: _386  and  _388
REMARK  139  A    between atoms: _388  and  _389
REMARK  140  A    between atoms: _388  and  _391
REMARK  141  A    between atoms: _391  and  _392
REMARK  142  A    between atoms: _392  and  _393
REMARK  143  A    between atoms: _393  and  _394
REMARK                            x       y       z     vdW  Elec       q    Type
REMARK                         _______ _______ _______ _____ _____    ______ ____
ROOT
ATOM      1  CA  THR A   5       0.099  -0.287  16.204  0.00  0.00    +0.000 C 
ENDROOT
BRANCH   1   2
ATOM      2  C   THR A   5       0.894   0.992  16.469  0.00  0.00    +0.000 C 
ATOM      3  O   THR A   5       0.349   1.913  17.096  0.00  0.00    +0.000 OA
ATOM      4  N   PRO A   6       2.144   1.058  16.022  0.00  0.00    +0.000 N 
ATOM      5  CA  PRO A   6       2.862   2.338  16.142  0.00  0.00    +0.000 C 
ATOM      6  CB  PRO A   6       4.105   2.078  15.269  0.00  0.00    +0.000 C 
ATOM      7  CG  PRO A   6       4.348   0.612  15.497  0.00  0.00    +0.000 C 
ATOM      8  CD  PRO A   6       2.965  -0.008  15.443  0.00  0.00    +0.000 C 
BRANCH   5   9
ATOM      9  C   PRO A   6       2.061   3.502  15.602  0.00  0.00    +0.000 C 
ATOM     10  N   PRO A   7       2.083   4.672  16.218  0.00  0.00    +0.000 N 
ATOM     11  CA  PRO A   7       2.987   5.064  17.298  0.00  0.00    +0.000 C 
ATOM     12  CB  PRO A   7       2.963   6.606  17.191  0.00  0.00    +0.000 C 
ATOM     13  CG  PRO A   7       1.596   6.911  16.691  0.00  0.00    +0.000 C 
ATOM     14  CD  PRO A   7       1.182   5.772  15.803  0.00  0.00    +0.000 C 
ATOM     15  O   PRO A   6       1.359   3.340  14.574  0.00  0.00    +0.000 OA
BRANCH  11  16
ATOM     16  C   PRO A   7       2.618   4.642  18.718  0.00  0.00    +0.000 C 
ATOM     17  O   PRO A   7       3.298   5.102  19.640  0.00  0.00    +0.000 OA
ATOM     18  N   LEU A   8       1.636   3.781  18.936  0.00  0.00    +0.000 N 
ATOM     19  H   LEU A   8       0.996   3.580  18.141  0.00  0.00    +0.000 HD
BRANCH  18  20
ATOM     20  CA  LEU A   8       1.373   3.090  20.191  0.00  0.00    +0.000 C 
BRANCH  20  21
ATOM     21  C   LEU A   8       1.012   4.049  21.317  0.00  0.00    +0.000 C 
ATOM     22  O   LEU A   8       1.224   3.719  22.492  0.00  0.00    +0.000 OA
ATOM     23  N   LEU A   9       0.488   5.215  20.963  0.00  0.00    +0.000 N 
ATOM     24  H   LEU A   9       0.310   5.389  19.953  0.00  0.00    +0.000 HD
BRANCH  23  25
ATOM     25  CA  LEU A   9       0.147   6.268  21.918  0.00  0.00    +0.000 C 
BRANCH  25  26
ATOM     26  C   LEU A   9      -0.897   5.802  22.920  0.00  0.00    +0.000 C 
ATOM     27  O   LEU A   9      -1.872   5.107  22.611  0.00  0.00    +0.000 OA
ENDBRANCH  25  26
BRANCH  25  28
ATOM     28  CB  LEU A   9      -0.338   7.539  21.187  0.00  0.00    +0.000 C 
BRANCH  28  29
ATOM     29  CG  LEU A   9       0.717   8.111  20.220  0.00  0.00    +0.000 C 
ATOM     30  CD2 LEU A   9       1.949   8.549  21.007  0.00  0.00    +0.000 C 
ATOM     31  CD1 LEU A   9       0.163   9.258  19.416  0.00  0.00    +0.000 C 
ENDBRANCH  28  29
ENDBRANCH  25  28
ENDBRANCH  23  25
ENDBRANCH  20  21
BRANCH  20  32
ATOM     32  CB  LEU A   8       2.598   2.249  20.568  0.00  0.00    +0.000 C 
BRANCH  32  33
ATOM     33  CG  LEU A   8       2.938   1.109  19.588  0.00  0.00    +0.000 C 
ATOM     34  CD2 LEU A   8       4.277   0.486  19.946  0.00  0.00    +0.000 C 
ATOM     35  CD1 LEU A   8       1.852   0.043  19.593  0.00  0.00    +0.000 C 
ENDBRANCH  32  33
ENDBRANCH  20  32
ENDBRANCH  18  20
ENDBRANCH  11  16
ENDBRANCH   5   9
ENDBRANCH   1   2
BRANCH   1  38
ATOM     36  C   THR A   4      -1.089  -1.417  17.970  0.00  0.00    +0.000 C 
ATOM     37  O   THR A   4      -0.478  -2.464  17.755  0.00  0.00    +0.000 OA
ATOM     38  N   THR A   5      -0.980  -0.347  17.191  0.00  0.00    +0.000 N 
ATOM     39  H   THR A   5      -1.654   0.440  17.281  0.00  0.00    +0.000 HD
BRANCH  36  40
ATOM     40  CA  THR A   4      -2.048  -1.354  19.163  0.00  0.00    +0.000 C 
BRANCH  40  43
ATOM     41  C   LEU A   3      -2.313   0.891  19.990  0.00  0.00    +0.000 C 
ATOM     42  O   LEU A   3      -1.341   0.730  20.762  0.00  0.00    +0.000 OA
ATOM     43  N   THR A   4      -2.760  -0.077  19.187  0.00  0.00    +0.000 N 
ATOM     44  H   THR A   4      -3.598   0.074  18.590  0.00  0.00    +0.000 HD
BRANCH  41  45
ATOM     45  CA  LEU A   3      -3.059   2.226  19.980  0.00  0.00    +0.000 C 
BRANCH  45  48
ATOM     46  C   SER A   2      -3.620   2.022  22.363  0.00  0.00    +0.000 C 
ATOM     47  O   SER A   2      -4.390   1.073  22.180  0.00  0.00    +0.000 OA
ATOM     48  N   LEU A   3      -3.089   2.732  21.357  0.00  0.00    +0.000 N 
ATOM     49  H   LEU A   3      -2.686   3.669  21.559  0.00  0.00    +0.000 HD
BRANCH  46  50
ATOM     50  CA  SER A   2      -3.202   2.424  23.781  0.00  0.00    +0.000 C 
BRANCH  50  53
ATOM     51  C   GLY A   1      -4.424   2.421  25.893  0.00  0.00    +0.000 C 
ATOM     52  O   GLY A   1      -4.359   3.641  26.044  0.00  0.00    +0.000 OA
ATOM     53  N   SER A   2      -3.959   1.750  24.839  0.00  0.00    +0.000 N 
ATOM     54  H   SER A   2      -4.137   0.728  24.766  0.00  0.00    +0.000 HD
BRANCH  51  55
ATOM     55  CA  GLY A   1      -5.056   1.564  26.966  0.00  0.00    +0.000 C 
BRANCH  55  56
ATOM     56  N   GLY A   1      -6.160   2.287  27.600  0.00  0.00    +0.000 NA
ATOM     57  H   GLY A   1      -6.720   3.007  27.100  0.00  0.00    +0.000 HD
ENDBRANCH  55  56
ENDBRANCH  51  55
ENDBRANCH  50  53
BRANCH  50  58
ATOM     58  CB  SER A   2      -1.717   2.070  23.925  0.00  0.00    +0.000 C 
BRANCH  58  59
ATOM     59  OG  SER A   2      -1.491   0.724  23.470  0.00  0.00    +0.000 OA
ATOM     60  H   SER A   2      -1.755   0.650  22.519  0.00  0.00    +0.000 HD
ENDBRANCH  58  59
ENDBRANCH  50  58
ENDBRANCH  46  50
ENDBRANCH  45  48
BRANCH  45  61
ATOM     61  CB  LEU A   3      -2.381   3.202  19.016  0.00  0.00    +0.000 C 
BRANCH  61  62
ATOM     62  CG  LEU A   3      -3.065   4.584  18.958  0.00  0.00    +0.000 C 
ATOM     63  CD2 LEU A   3      -4.494   4.497  18.461  0.00  0.00    +0.000 C 
ATOM     64  CD1 LEU A   3      -2.258   5.518  18.071  0.00  0.00    +0.000 C 
ENDBRANCH  61  62
ENDBRANCH  45  61
ENDBRANCH  41  45
ENDBRANCH  40  43
BRANCH  40  65
ATOM     65  CB  THR A   4      -2.974  -2.573  19.083  0.00  0.00    +0.000 C 
ATOM     66  CG2 THR A   4      -4.003  -2.497  20.217  0.00  0.00    +0.000 C 
BRANCH  65  67
ATOM     67  OG1 THR A   4      -3.682  -2.559  17.845  0.00  0.00    +0.000 OA
ATOM     68  HG1 THR A   4      -4.278  -3.348  17.798  0.00  0.00    +0.000 HD
ENDBRANCH  65  67
ENDBRANCH  40  65
ENDBRANCH  36  40
ENDBRANCH   1  38
BRANCH   1  69
ATOM     69  CB  THR A   5      -0.320  -0.237  14.716  0.00  0.00    +0.000 C 
ATOM     70  CG2 THR A   5      -1.199  -1.412  14.340  0.00  0.00    +0.000 C 
BRANCH  69  71
ATOM     71  OG1 THR A   5      -1.074   0.961  14.476  0.00  0.00    +0.000 OA
ATOM     72  HG1 THR A   5      -1.882   0.962  15.049  0.00  0.00    +0.000 HD
ENDBRANCH  69  71
ENDBRANCH   1  69
TORSDOF 28
REMARK  Name = ../refined-set-2016/3d9z/3d9z_pocket.pdb
REMARK  143 active torsions:
REMARK  status: ('A' for Active; 'I' for Inactive)
REMARK    1  A    between atoms: _1  and  _3
REMARK    2  A    between atoms: _3  and  _4
REMARK    3  A    between atoms: _3  and  _6
REMARK    4  A    between atoms: _6  and  _7
REMARK    5  A    between atoms: _17  and  _19
REMARK    6  A    between atoms: _19  and  _20
REMARK    7  A    between atoms: _19  and  _22
REMARK    8  A    between atoms: _22  and  _23
REMARK    9  A    between atoms: _28  and  _29
REMARK   10  A    between atoms: _31  and  _33
REMARK   11  A    between atoms: _33  and  _34
REMARK   12  A    between atoms: _33  and  _36
REMARK   13  A    between atoms: _36  and  _37
REMARK   14  A    between atoms: _40  and  _41
REMARK   15  A    between atoms: _46  and  _48
REMARK   16  A    between atoms: _48  and  _49
REMARK   17  A    between atoms: _48  and  _51
REMARK   18  A    between atoms: _51  and  _52
REMARK   19  A    between atoms: _57  and  _59
REMARK   20  A    between atoms: _59  and  _60
REMARK   21  A    between atoms: _63  and  _65
REMARK   22  A    between atoms: _65  and  _66
REMARK   23  A    between atoms: _65  and  _68
REMARK   24  A    between atoms: _68  and  _69
REMARK   25  A    between atoms: _74  and  _76
REMARK   26  A    between atoms: _76  and  _77
REMARK   27  A    between atoms: _76  and  _79
REMARK   28  A    between atoms: _79  and  _80
REMARK   29  A    between atoms: _83  and  _85
REMARK   30  A    between atoms: _85  and  _86
REMARK   31  A    between atoms: _85  and  _88
REMARK   32  A    between atoms: _88  and  _89
REMARK   33  A    between atoms: _89  and  _90
REMARK   34  A    between atoms: _95  and  _97
REMARK   35  A    between atoms: _97  and  _98
REMARK   36  A    between atoms: _97  and  _100
REMARK   37  A    between atoms: _100  and  _101
REMARK   38  A    between atoms: _107  and  _109
REMARK   39  A    between atoms: _120  and  _123
REMARK   40  A    between atoms: _123  and  _124
REMARK   41  A    between atoms: _132  and  _133
REMARK   42  A    between atoms: _141  and  _143
REMARK   43  A    between atoms: _143  and  _144
REMARK   44  A    between atoms: _143  and  _146
REMARK   45  A    between atoms: _146  and  _147
REMARK   46  A    between atoms: _147  and  _148
REMARK   47  A    between atoms: _151  and  _153
REMARK   48  A    between atoms: _153  and  _154
REMARK   49  A    between atoms: _153  and  _156
REMARK   50  A    between atoms: _156  and  _157
REMARK   51  A    between atoms: _162  and  _164
REMARK   52  A    between atoms: _164  and  _165
REMARK   53  A    between atoms: _164  and  _167
REMARK   54  A    between atoms: _167  and  _168
REMARK   55  A    between atoms: _168  and  _169
REMARK   56  A    between atoms: _172  and  _174
REMARK   57  A    between atoms: _174  and  _175
REMARK   58  A    between atoms: _174  and  _177
REMARK   59  A    between atoms: _177  and  _178
REMARK   60  A    between atoms: _181  and  _183
REMARK   61  A    between atoms: _183  and  _184
REMARK   62  A    between atoms: _183  and  _186
REMARK   63  A    between atoms: _186  and  _187
REMARK   64  A    between atoms: _188  and  ZN_403
REMARK   65  A    between atoms: _192  and  _194
REMARK   66  A    between atoms: _194  and  _195
REMARK   67  A    between atoms: _194  and  _197
REMARK   68  A    between atoms: _197  and  _198
REMARK   69  A    between atoms: _201  and  _203
REMARK   70  A    between atoms: _203  and  _204
REMARK   71  A    between atoms: _203  and  _206
REMARK   72  A    between atoms: _209  and  _211
REMARK   73  A    between atoms: _211  and  _212
REMARK   74  A    between atoms: _211  and  _214
REMARK   75  A    between atoms: _214  and  _215
REMARK   76  A    between atoms: _220  and  _222
REMARK   77  A    between atoms: _222  and  _223
REMARK   78  A    between atoms: _222  and  _225
REMARK   79  A    between atoms: _225  and  _226
REMARK   80  A    between atoms: _232  and  _234
REMARK   81  A    between atoms: _234  and  _235
REMARK   82  A    between atoms: _234  and  _237
REMARK   83  A    between atoms: _240  and  _242
REMARK   84  A    between atoms: _242  and  _243
REMARK   85  A    between atoms: _242  and  _245
REMARK   86  A    between atoms: _245  and  _246
REMARK   87  A    between atoms: _249  and  _251
REMARK   88  A    between atoms: _251  and  _252
REMARK   89  A    between atoms: _255  and  _257
REMARK   90  A    between atoms: _257  and  _258
REMARK   91  A    between atoms: _257  and  _260
REMARK   92  A    between atoms: _263  and  _265
REMARK   93  A    between atoms: _265  and  _266
REMARK   94  A    between atoms: _265  and  _268
REMARK   95  A    between atoms: _268  and  _269
REMARK   96  A    between atoms: _272  and  _274
REMARK   97  A    between atoms: _274  and  _275
REMARK   98  A    between atoms: _277  and  _279
REMARK   99  A    between atoms: _279  and  _280
REMARK  100  A    between atoms: _279  and  _282
REMARK  101  A    between atoms: _282  and  _283
REMARK  102  A    between atoms: _285  and  _287
REMARK  103  A    between atoms: _287  and  _288
REMARK  104  A    between atoms: _287  and  _290
REMARK  105  A    between atoms: _290  and  _291
REMARK  106  A    between atoms: _294  and  _296
REMARK  107  A    between atoms: _296  and  _297
REMARK  108  A    between atoms: _296  and  _299
REMARK  109  A    between atoms: _299  and  _300
REMARK  110  A    between atoms: _303  and  _305
REMARK  111  A    between atoms: _305  and  _306
REMARK  112  A    between atoms: _305  and  _308
REMARK  113  A    between atoms: _308  and  _309
REMARK  114  A    between atoms: _313  and  _314
REMARK  115  A    between atoms: _320  and  _321
REMARK  116  A    between atoms: _326  and  _328
REMARK  117  A    between atoms: _328  and  _329
REMARK  118  A    between atoms: _328  and  _331
REMARK  119  A    between atoms: _331  and  _332
REMARK  120  A    between atoms: _335  and  _337
REMARK  121  A    between atoms: _337  and  _338
REMARK  122  A    between atoms: _337  and  _340
REMARK  123  A    between atoms: _340  and  _341
REMARK  124  A    between atoms: _344  and  _346
REMARK  125  A    between atoms: _346  and  _347
REMARK  126  A    between atoms: _346  and  _349
REMARK  127  A    between atoms: _351  and  _353
REMARK  128  A    between atoms: _353  and  _354
REMARK  129  A    between atoms: _353  and  _356
REMARK  130  A    between atoms: _359  and  _361
REMARK  131  A    between atoms: _361  and  _362
REMARK  132  A    between atoms: _361  and  _364
REMARK  133  A    between atoms: _364  and  _365
REMARK  134  A    between atoms: _375  and  _377
REMARK  135  A    between atoms: _377  and  _378
REMARK  136  A    between atoms: _377  and  _380
REMARK  137  A    between atoms: _380  and  _381
REMARK  138  A    between atoms: _386  and  _388
REMARK  139  A    between atoms: _388  and  _389
REMARK  140  A    between atoms: _388  and  _391
REMARK  141  A    between atoms: _391  and  _392
REMARK  142  A    between atoms: _392  and  _393
REMARK  143  A    between atoms: _393  and  _394
REMARK                            x       y       z     vdW  Elec       q    Type
REMARK                         _______ _______ _______ _____ _____    ______ ____
ROOT
ATOM      1  C   CYS A   1      -6.080   7.164  24.154  0.00  0.00    +0.000 C 
ATOM      2  N   VAL A   2      -6.208   5.866  24.419  0.00  0.00    +0.000 N 
ATOM      3  H   VAL A   2      -5.428   5.350  24.873  0.00  0.00    +0.000 HD
ATOM      4  O   CYS A   1      -7.000   7.868  23.779  0.00  0.00    +0.000 OA
ENDROOT
BRANCH   1   5
ATOM      5  CA  CYS A   1      -4.702   7.786  24.349  0.00  0.00    +0.000 C 
BRANCH   5   6
ATOM      6  N   CYS A   1      -3.669   6.774  24.481  0.00  0.00    +0.000 NA
ATOM      7  H   CYS A   1      -3.650   6.001  23.785  0.00  0.00    +0.000 HD
ENDBRANCH   5   6
BRANCH   5   8
ATOM      8  CB  CYS A   1      -4.345   8.676  23.141  0.00  0.00    +0.000 C 
ATOM      9  SG  CYS A   1      -4.285   7.752  21.563  0.00  0.00    +0.000 S 
ENDBRANCH   5   8
ENDBRANCH   1   5
BRANCH   2  10
ATOM     10  CA  VAL A   2      -7.443   5.163  24.073  0.00  0.00    +0.000 C 
BRANCH  10  11
ATOM     11  CB  VAL A   2      -7.162   3.906  23.215  0.00  0.00    +0.000 C 
ATOM     12  CG2 VAL A   2      -8.467   3.225  22.828  0.00  0.00    +0.000 C 
ATOM     13  CG1 VAL A   2      -6.353   4.267  21.985  0.00  0.00    +0.000 C 
ENDBRANCH  10  11
BRANCH  10  14
ATOM     14  C   VAL A   2      -8.202   4.669  25.290  0.00  0.00    +0.000 C 
ATOM     15  O   VAL A   2      -7.623   4.044  26.180  0.00  0.00    +0.000 OA
ENDBRANCH  10  14
ENDBRANCH   2  10
TORSDOF 6
REMARK  Name = ../refined-set-2016/3d9z/3d9z_pocket.pdb
REMARK  143 active torsions:
REMARK  status: ('A' for Active; 'I' for Inactive)
REMARK    1  A    between atoms: _1  and  _3
REMARK    2  A    between atoms: _3  and  _4
REMARK    3  A    between atoms: _3  and  _6
REMARK    4  A    between atoms: _6  and  _7
REMARK    5  A    between atoms: _17  and  _19
REMARK    6  A    between atoms: _19  and  _20
REMARK    7  A    between atoms: _19  and  _22
REMARK    8  A    between atoms: _22  and  _23
REMARK    9  A    between atoms: _28  and  _29
REMARK   10  A    between atoms: _31  and  _33
REMARK   11  A    between atoms: _33  and  _34
REMARK   12  A    between atoms: _33  and  _36
REMARK   13  A    between atoms: _36  and  _37
REMARK   14  A    between atoms: _40  and  _41
REMARK   15  A    between atoms: _46  and  _48
REMARK   16  A    between atoms: _48  and  _49
REMARK   17  A    between atoms: _48  and  _51
REMARK   18  A    between atoms: _51  and  _52
REMARK   19  A    between atoms: _57  and  _59
REMARK   20  A    between atoms: _59  and  _60
REMARK   21  A    between atoms: _63  and  _65
REMARK   22  A    between atoms: _65  and  _66
REMARK   23  A    between atoms: _65  and  _68
REMARK   24  A    between atoms: _68  and  _69
REMARK   25  A    between atoms: _74  and  _76
REMARK   26  A    between atoms: _76  and  _77
REMARK   27  A    between atoms: _76  and  _79
REMARK   28  A    between atoms: _79  and  _80
REMARK   29  A    between atoms: _83  and  _85
REMARK   30  A    between atoms: _85  and  _86
REMARK   31  A    between atoms: _85  and  _88
REMARK   32  A    between atoms: _88  and  _89
REMARK   33  A    between atoms: _89  and  _90
REMARK   34  A    between atoms: _95  and  _97
REMARK   35  A    between atoms: _97  and  _98
REMARK   36  A    between atoms: _97  and  _100
REMARK   37  A    between atoms: _100  and  _101
REMARK   38  A    between atoms: _107  and  _109
REMARK   39  A    between atoms: _120  and  _123
REMARK   40  A    between atoms: _123  and  _124
REMARK   41  A    between atoms: _132  and  _133
REMARK   42  A    between atoms: _141  and  _143
REMARK   43  A    between atoms: _143  and  _144
REMARK   44  A    between atoms: _143  and  _146
REMARK   45  A    between atoms: _146  and  _147
REMARK   46  A    between atoms: _147  and  _148
REMARK   47  A    between atoms: _151  and  _153
REMARK   48  A    between atoms: _153  and  _154
REMARK   49  A    between atoms: _153  and  _156
REMARK   50  A    between atoms: _156  and  _157
REMARK   51  A    between atoms: _162  and  _164
REMARK   52  A    between atoms: _164  and  _165
REMARK   53  A    between atoms: _164  and  _167
REMARK   54  A    between atoms: _167  and  _168
REMARK   55  A    between atoms: _168  and  _169
REMARK   56  A    between atoms: _172  and  _174
REMARK   57  A    between atoms: _174  and  _175
REMARK   58  A    between atoms: _174  and  _177
REMARK   59  A    between atoms: _177  and  _178
REMARK   60  A    between atoms: _181  and  _183
REMARK   61  A    between atoms: _183  and  _184
REMARK   62  A    between atoms: _183  and  _186
REMARK   63  A    between atoms: _186  and  _187
REMARK   64  A    between atoms: _188  and  ZN_403
REMARK   65  A    between atoms: _192  and  _194
REMARK   66  A    between atoms: _194  and  _195
REMARK   67  A    between atoms: _194  and  _197
REMARK   68  A    between atoms: _197  and  _198
REMARK   69  A    between atoms: _201  and  _203
REMARK   70  A    between atoms: _203  and  _204
REMARK   71  A    between atoms: _203  and  _206
REMARK   72  A    between atoms: _209  and  _211
REMARK   73  A    between atoms: _211  and  _212
REMARK   74  A    between atoms: _211  and  _214
REMARK   75  A    between atoms: _214  and  _215
REMARK   76  A    between atoms: _220  and  _222
REMARK   77  A    between atoms: _222  and  _223
REMARK   78  A    between atoms: _222  and  _225
REMARK   79  A    between atoms: _225  and  _226
REMARK   80  A    between atoms: _232  and  _234
REMARK   81  A    between atoms: _234  and  _235
REMARK   82  A    between atoms: _234  and  _237
REMARK   83  A    between atoms: _240  and  _242
REMARK   84  A    between atoms: _242  and  _243
REMARK   85  A    between atoms: _242  and  _245
REMARK   86  A    between atoms: _245  and  _246
REMARK   87  A    between atoms: _249  and  _251
REMARK   88  A    between atoms: _251  and  _252
REMARK   89  A    between atoms: _255  and  _257
REMARK   90  A    between atoms: _257  and  _258
REMARK   91  A    between atoms: _257  and  _260
REMARK   92  A    between atoms: _263  and  _265
REMARK   93  A    between atoms: _265  and  _266
REMARK   94  A    between atoms: _265  and  _268
REMARK   95  A    between atoms: _268  and  _269
REMARK   96  A    between atoms: _272  and  _274
REMARK   97  A    between atoms: _274  and  _275
REMARK   98  A    between atoms: _277  and  _279
REMARK   99  A    between atoms: _279  and  _280
REMARK  100  A    between atoms: _279  and  _282
REMARK  101  A    between atoms: _282  and  _283
REMARK  102  A    between atoms: _285  and  _287
REMARK  103  A    between atoms: _287  and  _288
REMARK  104  A    between atoms: _287  and  _290
REMARK  105  A    between atoms: _290  and  _291
REMARK  106  A    between atoms: _294  and  _296
REMARK  107  A    between atoms: _296  and  _297
REMARK  108  A    between atoms: _296  and  _299
REMARK  109  A    between atoms: _299  and  _300
REMARK  110  A    between atoms: _303  and  _305
REMARK  111  A    between atoms: _305  and  _306
REMARK  112  A    between atoms: _305  and  _308
REMARK  113  A    between atoms: _308  and  _309
REMARK  114  A    between atoms: _313  and  _314
REMARK  115  A    between atoms: _320  and  _321
REMARK  116  A    between atoms: _326  and  _328
REMARK  117  A    between atoms: _328  and  _329
REMARK  118  A    between atoms: _328  and  _331
REMARK  119  A    between atoms: _331  and  _332
REMARK  120  A    between atoms: _335  and  _337
REMARK  121  A    between atoms: _337  and  _338
REMARK  122  A    between atoms: _337  and  _340
REMARK  123  A    between atoms: _340  and  _341
REMARK  124  A    between atoms: _344  and  _346
REMARK  125  A    between atoms: _346  and  _347
REMARK  126  A    between atoms: _346  and  _349
REMARK  127  A    between atoms: _351  and  _353
REMARK  128  A    between atoms: _353  and  _354
REMARK  129  A    between atoms: _353  and  _356
REMARK  130  A    between atoms: _359  and  _361
REMARK  131  A    between atoms: _361  and  _362
REMARK  132  A    between atoms: _361  and  _364
REMARK  133  A    between atoms: _364  and  _365
REMARK  134  A    between atoms: _375  and  _377
REMARK  135  A    between atoms: _377  and  _378
REMARK  136  A    between atoms: _377  and  _380
REMARK  137  A    between atoms: _380  and  _381
REMARK  138  A    between atoms: _386  and  _388
REMARK  139  A    between atoms: _388  and  _389
REMARK  140  A    between atoms: _388  and  _391
REMARK  141  A    between atoms: _391  and  _392
REMARK  142  A    between atoms: _392  and  _393
REMARK  143  A    between atoms: _393  and  _394
REMARK                            x       y       z     vdW  Elec       q    Type
REMARK                         _______ _______ _______ _____ _____    ______ ____
ROOT
ATOM      1  CG  TRP A   1      -8.895  -0.309  24.250  0.00  0.00    +0.000 A 
ATOM      2  CD1 TRP A   1      -7.673   0.268  24.432  0.00  0.00    +0.000 A 
ATOM      3  NE1 TRP A   1      -6.935   0.198  23.263  0.00  0.00    +0.000 N 
ATOM      4  HE1 TRP A   1      -5.971   0.567  23.135  0.00  0.00    +0.000 HD
ATOM      5  CE2 TRP A   1      -7.676  -0.434  22.303  0.00  0.00    +0.000 A 
ATOM      6  CZ2 TRP A   1      -7.344  -0.727  20.980  0.00  0.00    +0.000 A 
ATOM      7  CH2 TRP A   1      -8.306  -1.376  20.263  0.00  0.00    +0.000 A 
ATOM      8  CZ3 TRP A   1      -9.552  -1.729  20.795  0.00  0.00    +0.000 A 
ATOM      9  CE3 TRP A   1      -9.877  -1.431  22.106  0.00  0.00    +0.000 A 
ATOM     10  CD2 TRP A   1      -8.914  -0.770  22.880  0.00  0.00    +0.000 A 
ENDROOT
BRANCH   1  11
ATOM     11  CB  TRP A   1     -10.027  -0.462  25.241  0.00  0.00    +0.000 C 
BRANCH  11  12
ATOM     12  CA  TRP A   1     -11.054   0.669  25.081  0.00  0.00    +0.000 C 
BRANCH  12  13
ATOM     13  N   TRP A   1     -10.610   1.858  25.789  0.00  0.00    +0.000 NA
ATOM     14  H   TRP A   1     -10.023   1.764  26.642  0.00  0.00    +0.000 HD
ENDBRANCH  12  13
BRANCH  12  15
ATOM     15  C   TRP A   1     -12.420   0.229  25.591  0.00  0.00    +0.000 C 
ATOM     16  O   TRP A   1     -12.628   0.153  26.798  0.00  0.00    +0.000 OA
ENDBRANCH  12  15
ENDBRANCH  11  12
ENDBRANCH   1  11
TORSDOF 4
REMARK  Name = ../refined-set-2016/3d9z/3d9z_pocket.pdb
REMARK  143 active torsions:
REMARK  status: ('A' for Active; 'I' for Inactive)
REMARK    1  A    between atoms: _1  and  _3
REMARK    2  A    between atoms: _3  and  _4
REMARK    3  A    between atoms: _3  and  _6
REMARK    4  A    between atoms: _6  and  _7
REMARK    5  A    between atoms: _17  and  _19
REMARK    6  A    between atoms: _19  and  _20
REMARK    7  A    between atoms: _19  and  _22
REMARK    8  A    between atoms: _22  and  _23
REMARK    9  A    between atoms: _28  and  _29
REMARK   10  A    between atoms: _31  and  _33
REMARK   11  A    between atoms: _33  and  _34
REMARK   12  A    between atoms: _33  and  _36
REMARK   13  A    between atoms: _36  and  _37
REMARK   14  A    between atoms: _40  and  _41
REMARK   15  A    between atoms: _46  and  _48
REMARK   16  A    between atoms: _48  and  _49
REMARK   17  A    between atoms: _48  and  _51
REMARK   18  A    between atoms: _51  and  _52
REMARK   19  A    between atoms: _57  and  _59
REMARK   20  A    between atoms: _59  and  _60
REMARK   21  A    between atoms: _63  and  _65
REMARK   22  A    between atoms: _65  and  _66
REMARK   23  A    between atoms: _65  and  _68
REMARK   24  A    between atoms: _68  and  _69
REMARK   25  A    between atoms: _74  and  _76
REMARK   26  A    between atoms: _76  and  _77
REMARK   27  A    between atoms: _76  and  _79
REMARK   28  A    between atoms: _79  and  _80
REMARK   29  A    between atoms: _83  and  _85
REMARK   30  A    between atoms: _85  and  _86
REMARK   31  A    between atoms: _85  and  _88
REMARK   32  A    between atoms: _88  and  _89
REMARK   33  A    between atoms: _89  and  _90
REMARK   34  A    between atoms: _95  and  _97
REMARK   35  A    between atoms: _97  and  _98
REMARK   36  A    between atoms: _97  and  _100
REMARK   37  A    between atoms: _100  and  _101
REMARK   38  A    between atoms: _107  and  _109
REMARK   39  A    between atoms: _120  and  _123
REMARK   40  A    between atoms: _123  and  _124
REMARK   41  A    between atoms: _132  and  _133
REMARK   42  A    between atoms: _141  and  _143
REMARK   43  A    between atoms: _143  and  _144
REMARK   44  A    between atoms: _143  and  _146
REMARK   45  A    between atoms: _146  and  _147
REMARK   46  A    between atoms: _147  and  _148
REMARK   47  A    between atoms: _151  and  _153
REMARK   48  A    between atoms: _153  and  _154
REMARK   49  A    between atoms: _153  and  _156
REMARK   50  A    between atoms: _156  and  _157
REMARK   51  A    between atoms: _162  and  _164
REMARK   52  A    between atoms: _164  and  _165
REMARK   53  A    between atoms: _164  and  _167
REMARK   54  A    between atoms: _167  and  _168
REMARK   55  A    between atoms: _168  and  _169
REMARK   56  A    between atoms: _172  and  _174
REMARK   57  A    between atoms: _174  and  _175
REMARK   58  A    between atoms: _174  and  _177
REMARK   59  A    between atoms: _177  and  _178
REMARK   60  A    between atoms: _181  and  _183
REMARK   61  A    between atoms: _183  and  _184
REMARK   62  A    between atoms: _183  and  _186
REMARK   63  A    between atoms: _186  and  _187
REMARK   64  A    between atoms: _188  and  ZN_403
REMARK   65  A    between atoms: _192  and  _194
REMARK   66  A    between atoms: _194  and  _195
REMARK   67  A    between atoms: _194  and  _197
REMARK   68  A    between atoms: _197  and  _198
REMARK   69  A    between atoms: _201  and  _203
REMARK   70  A    between atoms: _203  and  _204
REMARK   71  A    between atoms: _203  and  _206
REMARK   72  A    between atoms: _209  and  _211
REMARK   73  A    between atoms: _211  and  _212
REMARK   74  A    between atoms: _211  and  _214
REMARK   75  A    between atoms: _214  and  _215
REMARK   76  A    between atoms: _220  and  _222
REMARK   77  A    between atoms: _222  and  _223
REMARK   78  A    between atoms: _222  and  _225
REMARK   79  A    between atoms: _225  and  _226
REMARK   80  A    between atoms: _232  and  _234
REMARK   81  A    between atoms: _234  and  _235
REMARK   82  A    between atoms: _234  and  _237
REMARK   83  A    between atoms: _240  and  _242
REMARK   84  A    between atoms: _242  and  _243
REMARK   85  A    between atoms: _242  and  _245
REMARK   86  A    between atoms: _245  and  _246
REMARK   87  A    between atoms: _249  and  _251
REMARK   88  A    between atoms: _251  and  _252
REMARK   89  A    between atoms: _255  and  _257
REMARK   90  A    between atoms: _257  and  _258
REMARK   91  A    between atoms: _257  and  _260
REMARK   92  A    between atoms: _263  and  _265
REMARK   93  A    between atoms: _265  and  _266
REMARK   94  A    between atoms: _265  and  _268
REMARK   95  A    between atoms: _268  and  _269
REMARK   96  A    between atoms: _272  and  _274
REMARK   97  A    between atoms: _274  and  _275
REMARK   98  A    between atoms: _277  and  _279
REMARK   99  A    between atoms: _279  and  _280
REMARK  100  A    between atoms: _279  and  _282
REMARK  101  A    between atoms: _282  and  _283
REMARK  102  A    between atoms: _285  and  _287
REMARK  103  A    between atoms: _287  and  _288
REMARK  104  A    between atoms: _287  and  _290
REMARK  105  A    between atoms: _290  and  _291
REMARK  106  A    between atoms: _294  and  _296
REMARK  107  A    between atoms: _296  and  _297
REMARK  108  A    between atoms: _296  and  _299
REMARK  109  A    between atoms: _299  and  _300
REMARK  110  A    between atoms: _303  and  _305
REMARK  111  A    between atoms: _305  and  _306
REMARK  112  A    between atoms: _305  and  _308
REMARK  113  A    between atoms: _308  and  _309
REMARK  114  A    between atoms: _313  and  _314
REMARK  115  A    between atoms: _320  and  _321
REMARK  116  A    between atoms: _326  and  _328
REMARK  117  A    between atoms: _328  and  _329
REMARK  118  A    between atoms: _328  and  _331
REMARK  119  A    between atoms: _331  and  _332
REMARK  120  A    between atoms: _335  and  _337
REMARK  121  A    between atoms: _337  and  _338
REMARK  122  A    between atoms: _337  and  _340
REMARK  123  A    between atoms: _340  and  _341
REMARK  124  A    between atoms: _344  and  _346
REMARK  125  A    between atoms: _346  and  _347
REMARK  126  A    between atoms: _346  and  _349
REMARK  127  A    between atoms: _351  and  _353
REMARK  128  A    between atoms: _353  and  _354
REMARK  129  A    between atoms: _353  and  _356
REMARK  130  A    between atoms: _359  and  _361
REMARK  131  A    between atoms: _361  and  _362
REMARK  132  A    between atoms: _361  and  _364
REMARK  133  A    between atoms: _364  and  _365
REMARK  134  A    between atoms: _375  and  _377
REMARK  135  A    between atoms: _377  and  _378
REMARK  136  A    between atoms: _377  and  _380
REMARK  137  A    between atoms: _380  and  _381
REMARK  138  A    between atoms: _386  and  _388
REMARK  139  A    between atoms: _388  and  _389
REMARK  140  A    between atoms: _388  and  _391
REMARK  141  A    between atoms: _391  and  _392
REMARK  142  A    between atoms: _392  and  _393
REMARK  143  A    between atoms: _393  and  _394
REMARK                            x       y       z     vdW  Elec       q    Type
REMARK                         _______ _______ _______ _____ _____    ______ ____
ROOT
ATOM      1  CB  ASN A   1      -2.046  -7.681  10.537  0.00  0.00    +0.000 C 
ENDROOT
BRANCH   1   2
ATOM      2  CG  ASN A   1      -3.525  -7.825  10.309  0.00  0.00    +0.000 C 
ATOM      3  OD1 ASN A   1      -4.211  -8.696  10.847  0.00  0.00    +0.000 OA
ATOM      4  ND2 ASN A   1      -4.083  -6.931   9.493  0.00  0.00    +0.000 N 
ATOM      5 HD21 ASN A   1      -5.105  -6.965   9.306  0.00  0.00    +0.000 HD
ATOM      6 HD22 ASN A   1      -3.496  -6.200   9.044  0.00  0.00    +0.000 HD
ENDBRANCH   1   2
BRANCH   1   7
ATOM      7  CA  ASN A   1      -1.501  -8.579  11.664  0.00  0.00    +0.000 C 
BRANCH   7   8
ATOM      8  N   ASN A   1      -1.865  -9.967  11.386  0.00  0.00    +0.000 NA
ATOM      9  H   ASN A   1      -2.769 -10.186  10.921  0.00  0.00    +0.000 HD
ENDBRANCH   7   8
BRANCH   7  10
ATOM     10  C   ASN A   1      -2.072  -8.164  13.019  0.00  0.00    +0.000 C 
ATOM     11  O   ASN A   1      -2.746  -7.131  13.120  0.00  0.00    +0.000 OA
ENDBRANCH   7  10
ENDBRANCH   1   7
TORSDOF 4
REMARK  Name = ../refined-set-2016/3d9z/3d9z_pocket.pdb
REMARK  143 active torsions:
REMARK  status: ('A' for Active; 'I' for Inactive)
REMARK    1  A    between atoms: _1  and  _3
REMARK    2  A    between atoms: _3  and  _4
REMARK    3  A    between atoms: _3  and  _6
REMARK    4  A    between atoms: _6  and  _7
REMARK    5  A    between atoms: _17  and  _19
REMARK    6  A    between atoms: _19  and  _20
REMARK    7  A    between atoms: _19  and  _22
REMARK    8  A    between atoms: _22  and  _23
REMARK    9  A    between atoms: _28  and  _29
REMARK   10  A    between atoms: _31  and  _33
REMARK   11  A    between atoms: _33  and  _34
REMARK   12  A    between atoms: _33  and  _36
REMARK   13  A    between atoms: _36  and  _37
REMARK   14  A    between atoms: _40  and  _41
REMARK   15  A    between atoms: _46  and  _48
REMARK   16  A    between atoms: _48  and  _49
REMARK   17  A    between atoms: _48  and  _51
REMARK   18  A    between atoms: _51  and  _52
REMARK   19  A    between atoms: _57  and  _59
REMARK   20  A    between atoms: _59  and  _60
REMARK   21  A    between atoms: _63  and  _65
REMARK   22  A    between atoms: _65  and  _66
REMARK   23  A    between atoms: _65  and  _68
REMARK   24  A    between atoms: _68  and  _69
REMARK   25  A    between atoms: _74  and  _76
REMARK   26  A    between atoms: _76  and  _77
REMARK   27  A    between atoms: _76  and  _79
REMARK   28  A    between atoms: _79  and  _80
REMARK   29  A    between atoms: _83  and  _85
REMARK   30  A    between atoms: _85  and  _86
REMARK   31  A    between atoms: _85  and  _88
REMARK   32  A    between atoms: _88  and  _89
REMARK   33  A    between atoms: _89  and  _90
REMARK   34  A    between atoms: _95  and  _97
REMARK   35  A    between atoms: _97  and  _98
REMARK   36  A    between atoms: _97  and  _100
REMARK   37  A    between atoms: _100  and  _101
REMARK   38  A    between atoms: _107  and  _109
REMARK   39  A    between atoms: _120  and  _123
REMARK   40  A    between atoms: _123  and  _124
REMARK   41  A    between atoms: _132  and  _133
REMARK   42  A    between atoms: _141  and  _143
REMARK   43  A    between atoms: _143  and  _144
REMARK   44  A    between atoms: _143  and  _146
REMARK   45  A    between atoms: _146  and  _147
REMARK   46  A    between atoms: _147  and  _148
REMARK   47  A    between atoms: _151  and  _153
REMARK   48  A    between atoms: _153  and  _154
REMARK   49  A    between atoms: _153  and  _156
REMARK   50  A    between atoms: _156  and  _157
REMARK   51  A    between atoms: _162  and  _164
REMARK   52  A    between atoms: _164  and  _165
REMARK   53  A    between atoms: _164  and  _167
REMARK   54  A    between atoms: _167  and  _168
REMARK   55  A    between atoms: _168  and  _169
REMARK   56  A    between atoms: _172  and  _174
REMARK   57  A    between atoms: _174  and  _175
REMARK   58  A    between atoms: _174  and  _177
REMARK   59  A    between atoms: _177  and  _178
REMARK   60  A    between atoms: _181  and  _183
REMARK   61  A    between atoms: _183  and  _184
REMARK   62  A    between atoms: _183  and  _186
REMARK   63  A    between atoms: _186  and  _187
REMARK   64  A    between atoms: _188  and  ZN_403
REMARK   65  A    between atoms: _192  and  _194
REMARK   66  A    between atoms: _194  and  _195
REMARK   67  A    between atoms: _194  and  _197
REMARK   68  A    between atoms: _197  and  _198
REMARK   69  A    between atoms: _201  and  _203
REMARK   70  A    between atoms: _203  and  _204
REMARK   71  A    between atoms: _203  and  _206
REMARK   72  A    between atoms: _209  and  _211
REMARK   73  A    between atoms: _211  and  _212
REMARK   74  A    between atoms: _211  and  _214
REMARK   75  A    between atoms: _214  and  _215
REMARK   76  A    between atoms: _220  and  _222
REMARK   77  A    between atoms: _222  and  _223
REMARK   78  A    between atoms: _222  and  _225
REMARK   79  A    between atoms: _225  and  _226
REMARK   80  A    between atoms: _232  and  _234
REMARK   81  A    between atoms: _234  and  _235
REMARK   82  A    between atoms: _234  and  _237
REMARK   83  A    between atoms: _240  and  _242
REMARK   84  A    between atoms: _242  and  _243
REMARK   85  A    between atoms: _242  and  _245
REMARK   86  A    between atoms: _245  and  _246
REMARK   87  A    between atoms: _249  and  _251
REMARK   88  A    between atoms: _251  and  _252
REMARK   89  A    between atoms: _255  and  _257
REMARK   90  A    between atoms: _257  and  _258
REMARK   91  A    between atoms: _257  and  _260
REMARK   92  A    between atoms: _263  and  _265
REMARK   93  A    between atoms: _265  and  _266
REMARK   94  A    between atoms: _265  and  _268
REMARK   95  A    between atoms: _268  and  _269
REMARK   96  A    between atoms: _272  and  _274
REMARK   97  A    between atoms: _274  and  _275
REMARK   98  A    between atoms: _277  and  _279
REMARK   99  A    between atoms: _279  and  _280
REMARK  100  A    between atoms: _279  and  _282
REMARK  101  A    between atoms: _282  and  _283
REMARK  102  A    between atoms: _285  and  _287
REMARK  103  A    between atoms: _287  and  _288
REMARK  104  A    between atoms: _287  and  _290
REMARK  105  A    between atoms: _290  and  _291
REMARK  106  A    between atoms: _294  and  _296
REMARK  107  A    between atoms: _296  and  _297
REMARK  108  A    between atoms: _296  and  _299
REMARK  109  A    between atoms: _299  and  _300
REMARK  110  A    between atoms: _303  and  _305
REMARK  111  A    between atoms: _305  and  _306
REMARK  112  A    between atoms: _305  and  _308
REMARK  113  A    between atoms: _308  and  _309
REMARK  114  A    between atoms: _313  and  _314
REMARK  115  A    between atoms: _320  and  _321
REMARK  116  A    between atoms: _326  and  _328
REMARK  117  A    between atoms: _328  and  _329
REMARK  118  A    between atoms: _328  and  _331
REMARK  119  A    between atoms: _331  and  _332
REMARK  120  A    between atoms: _335  and  _337
REMARK  121  A    between atoms: _337  and  _338
REMARK  122  A    between atoms: _337  and  _340
REMARK  123  A    between atoms: _340  and  _341
REMARK  124  A    between atoms: _344  and  _346
REMARK  125  A    between atoms: _346  and  _347
REMARK  126  A    between atoms: _346  and  _349
REMARK  127  A    between atoms: _351  and  _353
REMARK  128  A    between atoms: _353  and  _354
REMARK  129  A    between atoms: _353  and  _356
REMARK  130  A    between atoms: _359  and  _361
REMARK  131  A    between atoms: _361  and  _362
REMARK  132  A    between atoms: _361  and  _364
REMARK  133  A    between atoms: _364  and  _365
REMARK  134  A    between atoms: _375  and  _377
REMARK  135  A    between atoms: _377  and  _378
REMARK  136  A    between atoms: _377  and  _380
REMARK  137  A    between atoms: _380  and  _381
REMARK  138  A    between atoms: _386  and  _388
REMARK  139  A    between atoms: _388  and  _389
REMARK  140  A    between atoms: _388  and  _391
REMARK  141  A    between atoms: _391  and  _392
REMARK  142  A    between atoms: _392  and  _393
REMARK  143  A    between atoms: _393  and  _394
REMARK                            x       y       z     vdW  Elec       q    Type
REMARK                         _______ _______ _______ _____ _____    ______ ____
ROOT
ATOM      1  NE  ARG A   1       2.107  -4.126  21.223  0.00  0.00    +0.330 N 
ATOM      2  CZ  ARG A   1       2.231  -3.099  22.044  0.00  0.00    +0.000 C 
ATOM      3  NH2 ARG A   1       3.411  -2.764  22.517  0.00  0.00    +0.330 N 
ATOM      4 HH21 ARG A   1       3.501  -1.954  23.163  0.00  0.00    +0.000 HD
ATOM      5 HH22 ARG A   1       4.254  -3.309  22.245  0.00  0.00    +0.000 HD
ATOM      6  NH1 ARG A   1       1.160  -2.398  22.381  0.00  0.00    +0.330 N 
ATOM      7 HH11 ARG A   1       1.251  -1.588  23.027  0.00  0.00    +0.000 HD
ATOM      8 HH12 ARG A   1       0.228  -2.657  22.000  0.00  0.00    +0.000 HD
ATOM      9  HE  ARG A   1       2.966  -4.663  20.990  0.00  0.00    +0.000 HD
ENDROOT
BRANCH   1  10
ATOM     10  CD  ARG A   1       0.857  -4.560  20.621  0.00  0.00    +0.000 C 
BRANCH  10  11
ATOM     11  CG  ARG A   1       1.143  -5.796  19.820  0.00  0.00    +0.000 C 
BRANCH  11  12
ATOM     12  CB  ARG A   1       0.046  -6.018  18.819  0.00  0.00    +0.000 C 
BRANCH  12  13
ATOM     13  CA  ARG A   1      -0.166  -7.497  18.547  0.00  0.00    +0.000 C 
BRANCH  13  14
ATOM     14  N   ARG A   1      -1.196  -7.724  17.450  0.00  0.00    +0.000 NA
ATOM     15  H   ARG A   1      -2.077  -7.174  17.504  0.00  0.00    +0.000 HD
ENDBRANCH  13  14
BRANCH  13  16
ATOM     16  C   ARG A   1      -0.598  -8.258  19.830  0.00  0.00    +0.000 C 
ATOM     17  O   ARG A   1      -1.737  -8.145  20.274  0.00  0.00    +0.000 OA
ENDBRANCH  13  16
ENDBRANCH  12  13
ENDBRANCH  11  12
ENDBRANCH  10  11
ENDBRANCH   1  10
TORSDOF 6
