REMARK  Name = ../refined-set-2016/3uu1/3uu1_pocket.pdb
REMARK  97 active torsions:
REMARK  status: ('A' for Active; 'I' for Inactive)
REMARK    1  A    between atoms: _1  and  _3
REMARK    2  A    between atoms: _3  and  _4
REMARK    3  A    between atoms: _3  and  _6
REMARK    4  A    between atoms: _6  and  _7
REMARK    5  A    between atoms: _7  and  _8
REMARK    6  A    between atoms: _10  and  _12
REMARK    7  A    between atoms: _12  and  _13
REMARK    8  A    between atoms: _12  and  _15
REMARK    9  A    between atoms: _15  and  _16
REMARK   10  A    between atoms: _16  and  _17
REMARK   11  A    between atoms: _19  and  _21
REMARK   12  A    between atoms: _21  and  _22
REMARK   13  A    between atoms: _21  and  _24
REMARK   14  A    between atoms: _24  and  _25
REMARK   15  A    between atoms: _30  and  _32
REMARK   16  A    between atoms: _32  and  _33
REMARK   17  A    between atoms: _35  and  _37
REMARK   18  A    between atoms: _37  and  _38
REMARK   19  A    between atoms: _37  and  _40
REMARK   20  A    between atoms: _40  and  _41
REMARK   21  A    between atoms: _46  and  _48
REMARK   22  A    between atoms: _48  and  _49
REMARK   23  A    between atoms: _48  and  _51
REMARK   24  A    between atoms: _51  and  _52
REMARK   25  A    between atoms: _52  and  _53
REMARK   26  A    between atoms: _53  and  _54
REMARK   27  A    between atoms: _63  and  _65
REMARK   28  A    between atoms: _65  and  _66
REMARK   29  A    between atoms: _69  and  _71
REMARK   30  A    between atoms: _71  and  _72
REMARK   31  A    between atoms: _71  and  _74
REMARK   32  A    between atoms: _74  and  _75
REMARK   33  A    between atoms: _81  and  _83
REMARK   34  A    between atoms: _83  and  _84
REMARK   35  A    between atoms: _88  and  _89
REMARK   36  A    between atoms: _94  and  _96
REMARK   37  A    between atoms: _96  and  _97
REMARK   38  A    between atoms: _96  and  _99
REMARK   39  A    between atoms: _99  and  _100
REMARK   40  A    between atoms: _100  and  _101
REMARK   41  A    between atoms: _101  and  _102
REMARK   42  A    between atoms: _111  and  _113
REMARK   43  A    between atoms: _113  and  _114
REMARK   44  A    between atoms: _113  and  _116
REMARK   45  A    between atoms: _116  and  _117
REMARK   46  A    between atoms: _123  and  _125
REMARK   47  A    between atoms: _125  and  _126
REMARK   48  A    between atoms: _125  and  _128
REMARK   49  A    between atoms: _128  and  _129
REMARK   50  A    between atoms: _135  and  _136
REMARK   51  A    between atoms: _141  and  _143
REMARK   52  A    between atoms: _143  and  _144
REMARK   53  A    between atoms: _143  and  _146
REMARK   54  A    between atoms: _146  and  _147
REMARK   55  A    between atoms: _149  and  _151
REMARK   56  A    between atoms: _151  and  _152
REMARK   57  A    between atoms: _151  and  _154
REMARK   58  A    between atoms: _154  and  _155
REMARK   59  A    between atoms: _160  and  _161
REMARK   60  A    between atoms: _163  and  _165
REMARK   61  A    between atoms: _165  and  _166
REMARK   62  A    between atoms: _165  and  _168
REMARK   63  A    between atoms: _168  and  _169
REMARK   64  A    between atoms: _169  and  _170
REMARK   65  A    between atoms: _170  and  _171
REMARK   66  A    between atoms: _180  and  _182
REMARK   67  A    between atoms: _182  and  _183
REMARK   68  A    between atoms: _182  and  _185
REMARK   69  A    between atoms: _185  and  _186
REMARK   70  A    between atoms: _191  and  _193
REMARK   71  A    between atoms: _193  and  _194
REMARK   72  A    between atoms: _197  and  _199
REMARK   73  A    between atoms: _199  and  _200
REMARK   74  A    between atoms: _203  and  _205
REMARK   75  A    between atoms: _205  and  _206
REMARK   76  A    between atoms: _209  and  _211
REMARK   77  A    between atoms: _211  and  _212
REMARK   78  A    between atoms: _211  and  _214
REMARK   79  A    between atoms: _214  and  _215
REMARK   80  A    between atoms: _215  and  _216
REMARK   81  A    between atoms: _216  and  _217
REMARK   82  A    between atoms: _226  and  _228
REMARK   83  A    between atoms: _228  and  _229
REMARK   84  A    between atoms: _228  and  _231
REMARK   85  A    between atoms: _231  and  _232
REMARK   86  A    between atoms: _232  and  _233
REMARK   87  A    between atoms: _233  and  _234
REMARK   88  A    between atoms: _243  and  _245
REMARK   89  A    between atoms: _245  and  _246
REMARK   90  A    between atoms: _245  and  _248
REMARK   91  A    between atoms: _248  and  _249
REMARK   92  A    between atoms: _252  and  _254
REMARK   93  A    between atoms: _254  and  _255
REMARK   94  A    between atoms: _257  and  _259
REMARK   95  A    between atoms: _259  and  _260
REMARK   96  A    between atoms: _259  and  _262
REMARK   97  A    between atoms: _262  and  _263
REMARK                            x       y       z     vdW  Elec       q    Type
REMARK                         _______ _______ _______ _____ _____    ______ ____
ROOT
ATOM      1  CA  MET A   1      18.646  -2.879  27.986  0.00  0.00    +0.134 C 
ENDROOT
BRANCH   1   2
ATOM      2  N   MET A   1      19.507  -3.770  28.755  0.00  0.00    -0.239 NA
ATOM      3  H   MET A   1      20.039  -3.382  29.560  0.00  0.00    +0.142 HD
ENDBRANCH   1   2
BRANCH   1   4
ATOM      4  C   MET A   1      19.262  -2.488  26.641  0.00  0.00    +0.224 C 
ATOM      5  O   MET A   1      18.558  -1.995  25.749  0.00  0.00    -0.287 OA
ENDBRANCH   1   4
BRANCH   1   6
ATOM      6  CB  MET A   1      18.360  -1.609  28.785  0.00  0.00    +0.037 C 
BRANCH   6   7
ATOM      7  CG  MET A   1      17.490  -1.784  30.034  0.00  0.00    +0.059 C 
BRANCH   7   8
ATOM      8  SD  MET A   1      15.828  -2.394  29.707  0.00  0.00    -0.139 S 
ATOM      9  CE  MET A   1      15.060  -0.963  28.950  0.00  0.00    +0.069 C 
ENDBRANCH   7   8
ENDBRANCH   6   7
ENDBRANCH   1   6
TORSDOF 5
REMARK  Name = ../refined-set-2016/3uu1/3uu1_pocket.pdb
REMARK  97 active torsions:
REMARK  status: ('A' for Active; 'I' for Inactive)
REMARK    1  A    between atoms: _1  and  _3
REMARK    2  A    between atoms: _3  and  _4
REMARK    3  A    between atoms: _3  and  _6
REMARK    4  A    between atoms: _6  and  _7
REMARK    5  A    between atoms: _7  and  _8
REMARK    6  A    between atoms: _10  and  _12
REMARK    7  A    between atoms: _12  and  _13
REMARK    8  A    between atoms: _12  and  _15
REMARK    9  A    between atoms: _15  and  _16
REMARK   10  A    between atoms: _16  and  _17
REMARK   11  A    between atoms: _19  and  _21
REMARK   12  A    between atoms: _21  and  _22
REMARK   13  A    between atoms: _21  and  _24
REMARK   14  A    between atoms: _24  and  _25
REMARK   15  A    between atoms: _30  and  _32
REMARK   16  A    between atoms: _32  and  _33
REMARK   17  A    between atoms: _35  and  _37
REMARK   18  A    between atoms: _37  and  _38
REMARK   19  A    between atoms: _37  and  _40
REMARK   20  A    between atoms: _40  and  _41
REMARK   21  A    between atoms: _46  and  _48
REMARK   22  A    between atoms: _48  and  _49
REMARK   23  A    between atoms: _48  and  _51
REMARK   24  A    between atoms: _51  and  _52
REMARK   25  A    between atoms: _52  and  _53
REMARK   26  A    between atoms: _53  and  _54
REMARK   27  A    between atoms: _63  and  _65
REMARK   28  A    between atoms: _65  and  _66
REMARK   29  A    between atoms: _69  and  _71
REMARK   30  A    between atoms: _71  and  _72
REMARK   31  A    between atoms: _71  and  _74
REMARK   32  A    between atoms: _74  and  _75
REMARK   33  A    between atoms: _81  and  _83
REMARK   34  A    between atoms: _83  and  _84
REMARK   35  A    between atoms: _88  and  _89
REMARK   36  A    between atoms: _94  and  _96
REMARK   37  A    between atoms: _96  and  _97
REMARK   38  A    between atoms: _96  and  _99
REMARK   39  A    between atoms: _99  and  _100
REMARK   40  A    between atoms: _100  and  _101
REMARK   41  A    between atoms: _101  and  _102
REMARK   42  A    between atoms: _111  and  _113
REMARK   43  A    between atoms: _113  and  _114
REMARK   44  A    between atoms: _113  and  _116
REMARK   45  A    between atoms: _116  and  _117
REMARK   46  A    between atoms: _123  and  _125
REMARK   47  A    between atoms: _125  and  _126
REMARK   48  A    between atoms: _125  and  _128
REMARK   49  A    between atoms: _128  and  _129
REMARK   50  A    between atoms: _135  and  _136
REMARK   51  A    between atoms: _141  and  _143
REMARK   52  A    between atoms: _143  and  _144
REMARK   53  A    between atoms: _143  and  _146
REMARK   54  A    between atoms: _146  and  _147
REMARK   55  A    between atoms: _149  and  _151
REMARK   56  A    between atoms: _151  and  _152
REMARK   57  A    between atoms: _151  and  _154
REMARK   58  A    between atoms: _154  and  _155
REMARK   59  A    between atoms: _160  and  _161
REMARK   60  A    between atoms: _163  and  _165
REMARK   61  A    between atoms: _165  and  _166
REMARK   62  A    between atoms: _165  and  _168
REMARK   63  A    between atoms: _168  and  _169
REMARK   64  A    between atoms: _169  and  _170
REMARK   65  A    between atoms: _170  and  _171
REMARK   66  A    between atoms: _180  and  _182
REMARK   67  A    between atoms: _182  and  _183
REMARK   68  A    between atoms: _182  and  _185
REMARK   69  A    between atoms: _185  and  _186
REMARK   70  A    between atoms: _191  and  _193
REMARK   71  A    between atoms: _193  and  _194
REMARK   72  A    between atoms: _197  and  _199
REMARK   73  A    between atoms: _199  and  _200
REMARK   74  A    between atoms: _203  and  _205
REMARK   75  A    between atoms: _205  and  _206
REMARK   76  A    between atoms: _209  and  _211
REMARK   77  A    between atoms: _211  and  _212
REMARK   78  A    between atoms: _211  and  _214
REMARK   79  A    between atoms: _214  and  _215
REMARK   80  A    between atoms: _215  and  _216
REMARK   81  A    between atoms: _216  and  _217
REMARK   82  A    between atoms: _226  and  _228
REMARK   83  A    between atoms: _228  and  _229
REMARK   84  A    between atoms: _228  and  _231
REMARK   85  A    between atoms: _231  and  _232
REMARK   86  A    between atoms: _232  and  _233
REMARK   87  A    between atoms: _233  and  _234
REMARK   88  A    between atoms: _243  and  _245
REMARK   89  A    between atoms: _245  and  _246
REMARK   90  A    between atoms: _245  and  _248
REMARK   91  A    between atoms: _248  and  _249
REMARK   92  A    between atoms: _252  and  _254
REMARK   93  A    between atoms: _254  and  _255
REMARK   94  A    between atoms: _257  and  _259
REMARK   95  A    between atoms: _259  and  _260
REMARK   96  A    between atoms: _259  and  _262
REMARK   97  A    between atoms: _262  and  _263
REMARK                            x       y       z     vdW  Elec       q    Type
REMARK                         _______ _______ _______ _____ _____    ______ ____
ROOT
ATOM      1  CA  MET A   1      14.983   1.542  32.488  0.00  0.00    +0.134 C 
ENDROOT
BRANCH   1   2
ATOM      2  N   MET A   1      16.161   1.617  33.309  0.00  0.00    -0.239 NA
ATOM      3  H   MET A   1      16.200   1.092  34.206  0.00  0.00    +0.142 HD
ENDBRANCH   1   2
BRANCH   1   4
ATOM      4  C   MET A   1      14.459   2.920  32.132  0.00  0.00    +0.224 C 
ATOM      5  O   MET A   1      14.176   3.180  30.953  0.00  0.00    -0.287 OA
ENDBRANCH   1   4
BRANCH   1   6
ATOM      6  CB  MET A   1      13.871   0.708  33.116  0.00  0.00    +0.037 C 
BRANCH   6   7
ATOM      7  CG  MET A   1      14.133  -0.774  32.977  0.00  0.00    +0.059 C 
BRANCH   7   8
ATOM      8  SD  MET A   1      12.693  -1.740  33.441  0.00  0.00    -0.139 S 
ATOM      9  CE  MET A   1      11.514  -1.449  32.145  0.00  0.00    +0.069 C 
ENDBRANCH   7   8
ENDBRANCH   6   7
ENDBRANCH   1   6
TORSDOF 5
REMARK  Name = ../refined-set-2016/3uu1/3uu1_pocket.pdb
REMARK  97 active torsions:
REMARK  status: ('A' for Active; 'I' for Inactive)
REMARK    1  A    between atoms: _1  and  _3
REMARK    2  A    between atoms: _3  and  _4
REMARK    3  A    between atoms: _3  and  _6
REMARK    4  A    between atoms: _6  and  _7
REMARK    5  A    between atoms: _7  and  _8
REMARK    6  A    between atoms: _10  and  _12
REMARK    7  A    between atoms: _12  and  _13
REMARK    8  A    between atoms: _12  and  _15
REMARK    9  A    between atoms: _15  and  _16
REMARK   10  A    between atoms: _16  and  _17
REMARK   11  A    between atoms: _19  and  _21
REMARK   12  A    between atoms: _21  and  _22
REMARK   13  A    between atoms: _21  and  _24
REMARK   14  A    between atoms: _24  and  _25
REMARK   15  A    between atoms: _30  and  _32
REMARK   16  A    between atoms: _32  and  _33
REMARK   17  A    between atoms: _35  and  _37
REMARK   18  A    between atoms: _37  and  _38
REMARK   19  A    between atoms: _37  and  _40
REMARK   20  A    between atoms: _40  and  _41
REMARK   21  A    between atoms: _46  and  _48
REMARK   22  A    between atoms: _48  and  _49
REMARK   23  A    between atoms: _48  and  _51
REMARK   24  A    between atoms: _51  and  _52
REMARK   25  A    between atoms: _52  and  _53
REMARK   26  A    between atoms: _53  and  _54
REMARK   27  A    between atoms: _63  and  _65
REMARK   28  A    between atoms: _65  and  _66
REMARK   29  A    between atoms: _69  and  _71
REMARK   30  A    between atoms: _71  and  _72
REMARK   31  A    between atoms: _71  and  _74
REMARK   32  A    between atoms: _74  and  _75
REMARK   33  A    between atoms: _81  and  _83
REMARK   34  A    between atoms: _83  and  _84
REMARK   35  A    between atoms: _88  and  _89
REMARK   36  A    between atoms: _94  and  _96
REMARK   37  A    between atoms: _96  and  _97
REMARK   38  A    between atoms: _96  and  _99
REMARK   39  A    between atoms: _99  and  _100
REMARK   40  A    between atoms: _100  and  _101
REMARK   41  A    between atoms: _101  and  _102
REMARK   42  A    between atoms: _111  and  _113
REMARK   43  A    between atoms: _113  and  _114
REMARK   44  A    between atoms: _113  and  _116
REMARK   45  A    between atoms: _116  and  _117
REMARK   46  A    between atoms: _123  and  _125
REMARK   47  A    between atoms: _125  and  _126
REMARK   48  A    between atoms: _125  and  _128
REMARK   49  A    between atoms: _128  and  _129
REMARK   50  A    between atoms: _135  and  _136
REMARK   51  A    between atoms: _141  and  _143
REMARK   52  A    between atoms: _143  and  _144
REMARK   53  A    between atoms: _143  and  _146
REMARK   54  A    between atoms: _146  and  _147
REMARK   55  A    between atoms: _149  and  _151
REMARK   56  A    between atoms: _151  and  _152
REMARK   57  A    between atoms: _151  and  _154
REMARK   58  A    between atoms: _154  and  _155
REMARK   59  A    between atoms: _160  and  _161
REMARK   60  A    between atoms: _163  and  _165
REMARK   61  A    between atoms: _165  and  _166
REMARK   62  A    between atoms: _165  and  _168
REMARK   63  A    between atoms: _168  and  _169
REMARK   64  A    between atoms: _169  and  _170
REMARK   65  A    between atoms: _170  and  _171
REMARK   66  A    between atoms: _180  and  _182
REMARK   67  A    between atoms: _182  and  _183
REMARK   68  A    between atoms: _182  and  _185
REMARK   69  A    between atoms: _185  and  _186
REMARK   70  A    between atoms: _191  and  _193
REMARK   71  A    between atoms: _193  and  _194
REMARK   72  A    between atoms: _197  and  _199
REMARK   73  A    between atoms: _199  and  _200
REMARK   74  A    between atoms: _203  and  _205
REMARK   75  A    between atoms: _205  and  _206
REMARK   76  A    between atoms: _209  and  _211
REMARK   77  A    between atoms: _211  and  _212
REMARK   78  A    between atoms: _211  and  _214
REMARK   79  A    between atoms: _214  and  _215
REMARK   80  A    between atoms: _215  and  _216
REMARK   81  A    between atoms: _216  and  _217
REMARK   82  A    between atoms: _226  and  _228
REMARK   83  A    between atoms: _228  and  _229
REMARK   84  A    between atoms: _228  and  _231
REMARK   85  A    between atoms: _231  and  _232
REMARK   86  A    between atoms: _232  and  _233
REMARK   87  A    between atoms: _233  and  _234
REMARK   88  A    between atoms: _243  and  _245
REMARK   89  A    between atoms: _245  and  _246
REMARK   90  A    between atoms: _245  and  _248
REMARK   91  A    between atoms: _248  and  _249
REMARK   92  A    between atoms: _252  and  _254
REMARK   93  A    between atoms: _254  and  _255
REMARK   94  A    between atoms: _257  and  _259
REMARK   95  A    between atoms: _259  and  _260
REMARK   96  A    between atoms: _259  and  _262
REMARK   97  A    between atoms: _262  and  _263
REMARK                            x       y       z     vdW  Elec       q    Type
REMARK                         _______ _______ _______ _____ _____    ______ ____
ROOT
ATOM      1  CA  ASN A   3       0.539  -3.773  30.113  0.00  0.00    +0.158 C 
ENDROOT
BRANCH   1   3
ATOM      2  C   GLY A   2       0.674  -1.539  31.023  0.00  0.00    +0.243 C 
ATOM      3  N   ASN A   3       0.088  -2.722  31.005  0.00  0.00    -0.297 N 
ATOM      4  H   ASN A   3      -0.713  -2.904  31.643  0.00  0.00    +0.150 HD
ATOM      5  O   GLY A   2       1.535  -1.198  30.212  0.00  0.00    -0.273 OA
BRANCH   2   6
ATOM      6  CA  GLY A   2       0.189  -0.633  32.120  0.00  0.00    +0.176 C 
BRANCH   6   9
ATOM      7  C   HIS A   1       0.814   1.330  33.333  0.00  0.00    +0.239 C 
ATOM      8  O   HIS A   1       0.260   0.904  34.352  0.00  0.00    -0.274 OA
ATOM      9  N   GLY A   2       0.856   0.647  32.202  0.00  0.00    -0.296 N 
ATOM     10  H   GLY A   2       1.364   1.027  31.378  0.00  0.00    +0.150 HD
BRANCH   7  11
ATOM     11  CA  HIS A   1       1.516   2.678  33.339  0.00  0.00    +0.151 C 
BRANCH  11  12
ATOM     12  N   HIS A   1       0.637   3.633  33.988  0.00  0.00    -0.238 NA
ATOM     13  H   HIS A   1       0.709   3.766  35.017  0.00  0.00    +0.142 HD
ENDBRANCH  11  12
BRANCH  11  14
ATOM     14  CB  HIS A   1       2.819   2.566  34.140  0.00  0.00    +0.074 C 
BRANCH  14  15
ATOM     15  CG  HIS A   1       3.985   2.077  33.343  0.00  0.00    +0.082 A 
ATOM     16  ND1 HIS A   1       5.077   1.464  33.926  0.00  0.00    -0.227 NA
ATOM     17  CE1 HIS A   1       5.964   1.179  32.989  0.00  0.00    +0.199 A 
ATOM     18  NE2 HIS A   1       5.470   1.545  31.821  0.00  0.00    -0.221 NA
ATOM     19  CD2 HIS A   1       4.236   2.118  32.015  0.00  0.00    +0.115 A 
ENDBRANCH  14  15
ENDBRANCH  11  14
ENDBRANCH   7  11
ENDBRANCH   6   9
ENDBRANCH   2   6
ENDBRANCH   1   3
BRANCH   1  20
ATOM     20  C   ASN A   3      -0.577  -4.816  29.956  0.00  0.00    +0.241 C 
ATOM     21  O   ASN A   3      -1.546  -4.837  30.734  0.00  0.00    -0.273 OA
ATOM     22  N   ARG A   4      -0.437  -5.653  28.933  0.00  0.00    -0.297 N 
ATOM     23  H   ARG A   4       0.314  -5.472  28.236  0.00  0.00    +0.150 HD
BRANCH  22  24
ATOM     24  CA  ARG A   4      -1.307  -6.829  28.750  0.00  0.00    +0.149 C 
BRANCH  24  25
ATOM     25  C   ARG A   4      -1.158  -7.835  29.912  0.00  0.00    +0.241 C 
ATOM     26  O   ARG A   4      -0.313  -7.635  30.818  0.00  0.00    -0.273 OA
ATOM     27  N   ALA A   5      -1.987  -8.885  29.908  0.00  0.00    -0.298 N 
ATOM     28  H   ALA A   5      -2.686  -8.968  29.142  0.00  0.00    +0.150 HD
BRANCH  27  29
ATOM     29  CA  ALA A   5      -1.948  -9.936  30.954  0.00  0.00    +0.137 C 
ATOM     30  CB  ALA A   5      -3.159 -10.836  30.852  0.00  0.00    +0.030 C 
BRANCH  29  31
ATOM     31  C   ALA A   5      -0.678 -10.773  30.878  0.00  0.00    +0.227 C 
ATOM     32  O   ALA A   5      -0.190 -11.037  29.780  0.00  0.00    -0.286 OA
ENDBRANCH  29  31
ENDBRANCH  27  29
ENDBRANCH  24  25
BRANCH  24  33
ATOM     33  CB  ARG A   4      -1.079  -7.450  27.360  0.00  0.00    +0.033 C 
BRANCH  33  34
ATOM     34  CG  ARG A   4      -1.482  -6.461  26.216  0.00  0.00    +0.045 C 
BRANCH  34  35
ATOM     35  CD  ARG A   4      -1.353  -7.019  24.797  0.00  0.00    +0.174 C 
BRANCH  35  36
ATOM     36  NE  ARG A   4      -2.327  -6.409  23.886  0.00  0.00    -0.265 N 
ATOM     37  HE  ARG A   4      -3.333  -6.524  24.125  0.00  0.00    +0.259 HD
ATOM     38  CZ  ARG A   4      -2.043  -5.721  22.781  0.00  0.00    +0.342 C 
ATOM     39  NH2 ARG A   4      -0.783  -5.517  22.387  0.00  0.00    -0.292 N 
ATOM     40 HH21 ARG A   4       0.005  -5.899  22.947  0.00  0.00    +0.255 HD
ATOM     41 HH22 ARG A   4      -0.590  -4.976  21.520  0.00  0.00    +0.255 HD
ATOM     42  NH1 ARG A   4      -3.036  -5.236  22.055  0.00  0.00    -0.292 N 
ATOM     43 HH11 ARG A   4      -4.021  -5.394  22.349  0.00  0.00    +0.255 HD
ATOM     44 HH12 ARG A   4      -2.832  -4.697  21.189  0.00  0.00    +0.255 HD
ENDBRANCH  35  36
ENDBRANCH  34  35
ENDBRANCH  33  34
ENDBRANCH  24  33
ENDBRANCH  22  24
ENDBRANCH   1  20
BRANCH   1  45
ATOM     45  CB  ASN A   3       1.808  -4.428  30.695  0.00  0.00    +0.114 C 
BRANCH  45  46
ATOM     46  CG  ASN A   3       2.672  -5.106  29.639  0.00  0.00    +0.222 C 
ATOM     47  ND2 ASN A   3       3.773  -5.684  30.085  0.00  0.00    -0.329 N 
ATOM     48 HD21 ASN A   3       3.990  -5.675  31.102  0.00  0.00    +0.145 HD
ATOM     49 HD22 ASN A   3       4.423  -6.148  29.419  0.00  0.00    +0.145 HD
ATOM     50  OD1 ASN A   3       2.372  -5.091  28.441  0.00  0.00    -0.275 OA
ENDBRANCH  45  46
ENDBRANCH   1  45
TORSDOF 18
REMARK  Name = ../refined-set-2016/3uu1/3uu1_pocket.pdb
REMARK  97 active torsions:
REMARK  status: ('A' for Active; 'I' for Inactive)
REMARK    1  A    between atoms: _1  and  _3
REMARK    2  A    between atoms: _3  and  _4
REMARK    3  A    between atoms: _3  and  _6
REMARK    4  A    between atoms: _6  and  _7
REMARK    5  A    between atoms: _7  and  _8
REMARK    6  A    between atoms: _10  and  _12
REMARK    7  A    between atoms: _12  and  _13
REMARK    8  A    between atoms: _12  and  _15
REMARK    9  A    between atoms: _15  and  _16
REMARK   10  A    between atoms: _16  and  _17
REMARK   11  A    between atoms: _19  and  _21
REMARK   12  A    between atoms: _21  and  _22
REMARK   13  A    between atoms: _21  and  _24
REMARK   14  A    between atoms: _24  and  _25
REMARK   15  A    between atoms: _30  and  _32
REMARK   16  A    between atoms: _32  and  _33
REMARK   17  A    between atoms: _35  and  _37
REMARK   18  A    between atoms: _37  and  _38
REMARK   19  A    between atoms: _37  and  _40
REMARK   20  A    between atoms: _40  and  _41
REMARK   21  A    between atoms: _46  and  _48
REMARK   22  A    between atoms: _48  and  _49
REMARK   23  A    between atoms: _48  and  _51
REMARK   24  A    between atoms: _51  and  _52
REMARK   25  A    between atoms: _52  and  _53
REMARK   26  A    between atoms: _53  and  _54
REMARK   27  A    between atoms: _63  and  _65
REMARK   28  A    between atoms: _65  and  _66
REMARK   29  A    between atoms: _69  and  _71
REMARK   30  A    between atoms: _71  and  _72
REMARK   31  A    between atoms: _71  and  _74
REMARK   32  A    between atoms: _74  and  _75
REMARK   33  A    between atoms: _81  and  _83
REMARK   34  A    between atoms: _83  and  _84
REMARK   35  A    between atoms: _88  and  _89
REMARK   36  A    between atoms: _94  and  _96
REMARK   37  A    between atoms: _96  and  _97
REMARK   38  A    between atoms: _96  and  _99
REMARK   39  A    between atoms: _99  and  _100
REMARK   40  A    between atoms: _100  and  _101
REMARK   41  A    between atoms: _101  and  _102
REMARK   42  A    between atoms: _111  and  _113
REMARK   43  A    between atoms: _113  and  _114
REMARK   44  A    between atoms: _113  and  _116
REMARK   45  A    between atoms: _116  and  _117
REMARK   46  A    between atoms: _123  and  _125
REMARK   47  A    between atoms: _125  and  _126
REMARK   48  A    between atoms: _125  and  _128
REMARK   49  A    between atoms: _128  and  _129
REMARK   50  A    between atoms: _135  and  _136
REMARK   51  A    between atoms: _141  and  _143
REMARK   52  A    between atoms: _143  and  _144
REMARK   53  A    between atoms: _143  and  _146
REMARK   54  A    between atoms: _146  and  _147
REMARK   55  A    between atoms: _149  and  _151
REMARK   56  A    between atoms: _151  and  _152
REMARK   57  A    between atoms: _151  and  _154
REMARK   58  A    between atoms: _154  and  _155
REMARK   59  A    between atoms: _160  and  _161
REMARK   60  A    between atoms: _163  and  _165
REMARK   61  A    between atoms: _165  and  _166
REMARK   62  A    between atoms: _165  and  _168
REMARK   63  A    between atoms: _168  and  _169
REMARK   64  A    between atoms: _169  and  _170
REMARK   65  A    between atoms: _170  and  _171
REMARK   66  A    between atoms: _180  and  _182
REMARK   67  A    between atoms: _182  and  _183
REMARK   68  A    between atoms: _182  and  _185
REMARK   69  A    between atoms: _185  and  _186
REMARK   70  A    between atoms: _191  and  _193
REMARK   71  A    between atoms: _193  and  _194
REMARK   72  A    between atoms: _197  and  _199
REMARK   73  A    between atoms: _199  and  _200
REMARK   74  A    between atoms: _203  and  _205
REMARK   75  A    between atoms: _205  and  _206
REMARK   76  A    between atoms: _209  and  _211
REMARK   77  A    between atoms: _211  and  _212
REMARK   78  A    between atoms: _211  and  _214
REMARK   79  A    between atoms: _214  and  _215
REMARK   80  A    between atoms: _215  and  _216
REMARK   81  A    between atoms: _216  and  _217
REMARK   82  A    between atoms: _226  and  _228
REMARK   83  A    between atoms: _228  and  _229
REMARK   84  A    between atoms: _228  and  _231
REMARK   85  A    between atoms: _231  and  _232
REMARK   86  A    between atoms: _232  and  _233
REMARK   87  A    between atoms: _233  and  _234
REMARK   88  A    between atoms: _243  and  _245
REMARK   89  A    between atoms: _245  and  _246
REMARK   90  A    between atoms: _245  and  _248
REMARK   91  A    between atoms: _248  and  _249
REMARK   92  A    between atoms: _252  and  _254
REMARK   93  A    between atoms: _254  and  _255
REMARK   94  A    between atoms: _257  and  _259
REMARK   95  A    between atoms: _259  and  _260
REMARK   96  A    between atoms: _259  and  _262
REMARK   97  A    between atoms: _262  and  _263
REMARK                            x       y       z     vdW  Elec       q    Type
REMARK                         _______ _______ _______ _____ _____    ______ ____
ROOT
ATOM      1  C   HIS A   6      10.674  -0.383  25.973  0.00  0.00    +0.244 C 
ATOM      2  O   HIS A   6      10.835  -1.564  26.334  0.00  0.00    -0.273 OA
ATOM      3  N   PRO A   7      10.885   0.029  24.703  0.00  0.00    -0.272 N 
ATOM      4  CD  PRO A   7      10.964   1.398  24.162  0.00  0.00    +0.094 C 
ATOM      5  CG  PRO A   7      11.779   1.195  22.862  0.00  0.00    +0.024 C 
ATOM      6  CB  PRO A   7      11.306  -0.160  22.386  0.00  0.00    +0.031 C 
ATOM      7  CA  PRO A   7      11.172  -0.985  23.671  0.00  0.00    +0.152 C 
ENDROOT
BRANCH   7   8
ATOM      8  C   PRO A   7      12.453  -1.779  23.913  0.00  0.00    +0.241 C 
ATOM      9  N   SER A   8      13.410  -1.186  24.610  0.00  0.00    -0.295 N 
ATOM     10  H   SER A   8      13.253  -0.234  24.999  0.00  0.00    +0.150 HD
ATOM     11  O   PRO A   7      12.564  -2.926  23.467  0.00  0.00    -0.273 OA
BRANCH   9  12
ATOM     12  CA  SER A   8      14.682  -1.861  24.835  0.00  0.00    +0.178 C 
BRANCH  12  13
ATOM     13  C   SER A   8      14.595  -2.943  25.911  0.00  0.00    +0.243 C 
ATOM     14  N   TYR A   9      13.434  -3.053  26.559  0.00  0.00    -0.297 N 
ATOM     15  H   TYR A   9      12.673  -2.378  26.341  0.00  0.00    +0.150 HD
ATOM     16  O   SER A   8      15.564  -3.675  26.131  0.00  0.00    -0.273 OA
BRANCH  14  17
ATOM     17  CA  TYR A   9      13.188  -4.095  27.573  0.00  0.00    +0.153 C 
BRANCH  17  18
ATOM     18  C   TYR A   9      12.863  -5.450  26.922  0.00  0.00    +0.241 C 
ATOM     19  O   TYR A   9      12.733  -6.447  27.614  0.00  0.00    -0.273 OA
ATOM     20  N   ARG A  10      12.825  -5.476  25.615  0.00  0.00    -0.297 N 
ATOM     21  H   ARG A  10      13.060  -4.610  25.089  0.00  0.00    +0.150 HD
BRANCH  20  22
ATOM     22  CA  ARG A  10      12.474  -6.645  24.890  0.00  0.00    +0.149 C 
BRANCH  22  23
ATOM     23  C   ARG A  10      13.222  -7.931  25.281  0.00  0.00    +0.241 C 
ATOM     24  N   HIS A  11      14.528  -7.854  25.445  0.00  0.00    -0.297 N 
ATOM     25  H   HIS A  11      15.001  -6.935  25.327  0.00  0.00    +0.150 HD
ATOM     26  O   ARG A  10      12.625  -8.938  25.436  0.00  0.00    -0.273 OA
BRANCH  24  27
ATOM     27  CA  HIS A  11      15.326  -9.028  25.789  0.00  0.00    +0.155 C 
BRANCH  27  28
ATOM     28  C   HIS A  11      14.992  -9.508  27.221  0.00  0.00    +0.241 C 
ATOM     29  N   ALA A  12      14.838  -8.578  28.167  0.00  0.00    -0.297 N 
ATOM     30  H   ALA A  12      14.998  -7.577  27.935  0.00  0.00    +0.150 HD
ATOM     31  O   HIS A  11      14.854 -10.710  27.455  0.00  0.00    -0.273 OA
BRANCH  29  32
ATOM     32  CA  ALA A  12      14.444  -8.955  29.534  0.00  0.00    +0.149 C 
ATOM     33  CB  ALA A  12      14.454  -7.747  30.461  0.00  0.00    +0.031 C 
BRANCH  32  34
ATOM     34  C   ALA A  12      13.064  -9.614  29.538  0.00  0.00    +0.241 C 
ATOM     35  O   ALA A  12      12.823 -10.615  30.230  0.00  0.00    -0.273 OA
ATOM     36  N   ALA A  13      12.156  -9.050  28.751  0.00  0.00    -0.297 N 
ATOM     37  H   ALA A  13      12.430  -8.243  28.155  0.00  0.00    +0.150 HD
BRANCH  36  38
ATOM     38  CA  ALA A  13      10.775  -9.539  28.704  0.00  0.00    +0.149 C 
ATOM     39  CB  ALA A  13       9.912  -8.593  27.819  0.00  0.00    +0.031 C 
BRANCH  38  40
ATOM     40  C   ALA A  13      10.716 -10.982  28.193  0.00  0.00    +0.241 C 
ATOM     41  O   ALA A  13      10.028 -11.833  28.769  0.00  0.00    -0.273 OA
ATOM     42  N   ALA A  14      11.449 -11.241  27.110  0.00  0.00    -0.298 N 
ATOM     43  H   ALA A  14      11.948 -10.457  26.643  0.00  0.00    +0.150 HD
BRANCH  42  44
ATOM     44  CA  ALA A  14      11.577 -12.591  26.553  0.00  0.00    +0.137 C 
ATOM     45  CB  ALA A  14      12.509 -12.584  25.320  0.00  0.00    +0.030 C 
BRANCH  44  46
ATOM     46  C   ALA A  14      12.066 -13.572  27.607  0.00  0.00    +0.227 C 
ATOM     47  O   ALA A  14      11.486 -14.637  27.791  0.00  0.00    -0.286 OA
ENDBRANCH  44  46
ENDBRANCH  42  44
ENDBRANCH  38  40
ENDBRANCH  36  38
ENDBRANCH  32  34
ENDBRANCH  29  32
ENDBRANCH  27  28
BRANCH  27  48
ATOM     48  CB  HIS A  11      16.824  -8.735  25.621  0.00  0.00    +0.076 C 
BRANCH  48  49
ATOM     49  CG  HIS A  11      17.136  -7.734  24.542  0.00  0.00    +0.082 A 
ATOM     50  ND1 HIS A  11      17.323  -6.390  24.806  0.00  0.00    -0.227 NA
ATOM     51  CE1 HIS A  11      17.585  -5.753  23.678  0.00  0.00    +0.199 A 
ATOM     52  NE2 HIS A  11      17.590  -6.638  22.691  0.00  0.00    -0.221 NA
ATOM     53  CD2 HIS A  11      17.309  -7.882  23.202  0.00  0.00    +0.115 A 
ENDBRANCH  48  49
ENDBRANCH  27  48
ENDBRANCH  24  27
ENDBRANCH  22  23
BRANCH  22  54
ATOM     54  CB  ARG A  10      12.594  -6.364  23.401  0.00  0.00    +0.033 C 
BRANCH  54  55
ATOM     55  CG  ARG A  10      13.970  -6.406  22.870  0.00  0.00    +0.045 C 
BRANCH  55  56
ATOM     56  CD  ARG A  10      14.000  -6.264  21.343  0.00  0.00    +0.174 C 
BRANCH  56  57
ATOM     57  NE  ARG A  10      13.469  -4.984  21.107  0.00  0.00    -0.265 N 
ATOM     58  HE  ARG A  10      12.433  -4.893  21.105  0.00  0.00    +0.259 HD
ATOM     59  CZ  ARG A  10      14.168  -3.891  20.889  0.00  0.00    +0.342 C 
ATOM     60  NH2 ARG A  10      13.517  -2.773  20.744  0.00  0.00    -0.292 N 
ATOM     61 HH21 ARG A  10      12.479  -2.765  20.802  0.00  0.00    +0.255 HD
ATOM     62 HH22 ARG A  10      14.035  -1.888  20.570  0.00  0.00    +0.255 HD
ATOM     63  NH1 ARG A  10      15.446  -3.916  20.679  0.00  0.00    -0.292 N 
ATOM     64 HH11 ARG A  10      15.955  -4.823  20.679  0.00  0.00    +0.255 HD
ATOM     65 HH12 ARG A  10      15.963  -3.029  20.511  0.00  0.00    +0.255 HD
ENDBRANCH  56  57
ENDBRANCH  55  56
ENDBRANCH  54  55
ENDBRANCH  22  54
ENDBRANCH  20  22
ENDBRANCH  17  18
BRANCH  17  66
ATOM     66  CB  TYR A   9      12.049  -3.663  28.502  0.00  0.00    +0.055 C 
BRANCH  66  67
ATOM     67  CG  TYR A   9      11.787  -4.521  29.737  0.00  0.00    -0.020 A 
ATOM     68  CD2 TYR A   9      12.635  -4.468  30.837  0.00  0.00    -0.001 A 
ATOM     69  CE2 TYR A   9      12.380  -5.212  31.975  0.00  0.00    +0.036 A 
ATOM     70  CZ  TYR A   9      11.263  -6.017  32.031  0.00  0.00    +0.134 A 
ATOM     71  CE1 TYR A   9      10.396  -6.098  30.964  0.00  0.00    +0.036 A 
ATOM     72  CD1 TYR A   9      10.659  -5.343  29.816  0.00  0.00    -0.001 A 
BRANCH  70  73
ATOM     73  OH  TYR A   9      11.036  -6.735  33.168  0.00  0.00    -0.506 OA
ATOM     74  HH  TYR A   9      11.757  -6.553  33.822  0.00  0.00    +0.292 HD
ENDBRANCH  70  73
ENDBRANCH  66  67
ENDBRANCH  17  66
ENDBRANCH  14  17
ENDBRANCH  12  13
BRANCH  12  75
ATOM     75  CB  SER A   8      15.756  -0.836  25.186  0.00  0.00    +0.166 C 
BRANCH  75  76
ATOM     76  OG  SER A   8      15.919   0.024  24.080  0.00  0.00    -0.380 OA
ATOM     77  H   SER A   8      16.613   0.699  24.287  0.00  0.00    +0.211 HD
ENDBRANCH  75  76
ENDBRANCH  12  75
ENDBRANCH   9  12
ENDBRANCH   7   8
BRANCH   1  78
ATOM     78  CA  HIS A   6      10.256   0.666  26.998  0.00  0.00    +0.155 C 
BRANCH  78  81
ATOM     79  C   PHE A   5       8.998   2.681  26.470  0.00  0.00    +0.241 C 
ATOM     80  O   PHE A   5       9.956   3.403  26.653  0.00  0.00    -0.273 OA
ATOM     81  N   HIS A   6       9.046   1.368  26.591  0.00  0.00    -0.297 N 
ATOM     82  H   HIS A   6       8.189   0.814  26.389  0.00  0.00    +0.150 HD
BRANCH  79  83
ATOM     83  CA  PHE A   5       7.652   3.266  26.040  0.00  0.00    +0.153 C 
BRANCH  83  85
ATOM     84  C   ARG A   4       6.608   2.222  24.109  0.00  0.00    +0.241 C 
ATOM     85  N   PHE A   5       6.723   2.323  25.434  0.00  0.00    -0.297 N 
ATOM     86  H   PHE A   5       6.139   1.717  26.045  0.00  0.00    +0.150 HD
ATOM     87  O   ARG A   4       7.337   2.847  23.352  0.00  0.00    -0.273 OA
BRANCH  84  88
ATOM     88  CA  ARG A   4       5.519   1.281  23.565  0.00  0.00    +0.149 C 
BRANCH  88  90
ATOM     89  C   PRO A   3       6.327  -0.843  24.465  0.00  0.00    +0.241 C 
ATOM     90  N   ARG A   4       5.372   0.069  24.369  0.00  0.00    -0.297 N 
ATOM     91  H   ARG A   4       4.482  -0.083  24.886  0.00  0.00    +0.150 HD
ATOM     92  O   PRO A   3       7.390  -0.782  23.820  0.00  0.00    -0.273 OA
BRANCH  89  99
ATOM     93  C   ALA A   2       5.718  -0.849  27.516  0.00  0.00    +0.244 C 
ATOM     94  O   ALA A   2       6.787  -0.255  27.343  0.00  0.00    -0.273 OA
ATOM     95  N   PRO A   3       5.241  -1.744  26.614  0.00  0.00    -0.272 N 
ATOM     96  CD  PRO A   3       4.142  -2.727  26.762  0.00  0.00    +0.094 C 
ATOM     97  CG  PRO A   3       4.550  -3.851  25.780  0.00  0.00    +0.024 C 
ATOM     98  CB  PRO A   3       5.215  -3.109  24.670  0.00  0.00    +0.031 C 
ATOM     99  CA  PRO A   3       6.043  -2.026  25.396  0.00  0.00    +0.152 C 
BRANCH  93 100
ATOM    100  CA  ALA A   2       4.862  -0.518  28.758  0.00  0.00    +0.149 C 
ATOM    101  CB  ALA A   2       4.952  -1.604  29.847  0.00  0.00    +0.031 C 
BRANCH 100 103
ATOM    102  C   PHE A   1       3.117   0.646  27.480  0.00  0.00    +0.239 C 
ATOM    103  N   ALA A   2       3.453  -0.162  28.486  0.00  0.00    -0.297 N 
ATOM    104  H   ALA A   2       2.705  -0.552  29.095  0.00  0.00    +0.150 HD
ATOM    105  O   PHE A   1       3.931   1.109  26.706  0.00  0.00    -0.274 OA
BRANCH 102 106
ATOM    106  CA  PHE A   1       1.639   1.040  27.377  0.00  0.00    +0.149 C 
BRANCH 106 107
ATOM    107  N   PHE A   1       1.551   2.483  27.599  0.00  0.00    -0.238 NA
ATOM    108  H   PHE A   1       1.424   3.110  26.779  0.00  0.00    +0.142 HD
ENDBRANCH 106 107
BRANCH 106 109
ATOM    109  CB  PHE A   1       1.071   0.698  25.994  0.00  0.00    +0.053 C 
BRANCH 109 110
ATOM    110  CG  PHE A   1       1.000  -0.788  25.690  0.00  0.00    -0.020 A 
ATOM    111  CD2 PHE A   1       0.450  -1.698  26.610  0.00  0.00    -0.004 A 
ATOM    112  CE2 PHE A   1       0.387  -3.061  26.313  0.00  0.00    -0.000 A 
ATOM    113  CZ  PHE A   1       0.862  -3.518  25.069  0.00  0.00    -0.000 A 
ATOM    114  CE1 PHE A   1       1.391  -2.607  24.136  0.00  0.00    -0.000 A 
ATOM    115  CD1 PHE A   1       1.453  -1.261  24.451  0.00  0.00    -0.004 A 
ENDBRANCH 109 110
ENDBRANCH 106 109
ENDBRANCH 102 106
ENDBRANCH 100 103
ENDBRANCH  93 100
ENDBRANCH  89  99
ENDBRANCH  88  90
BRANCH  88 116
ATOM    116  CB  ARG A   4       4.142   1.989  23.485  0.00  0.00    +0.033 C 
BRANCH 116 117
ATOM    117  CG  ARG A   4       4.114   3.256  22.620  0.00  0.00    +0.045 C 
BRANCH 117 118
ATOM    118  CD  ARG A   4       4.514   2.945  21.178  0.00  0.00    +0.174 C 
BRANCH 118 119
ATOM    119  NE  ARG A   4       4.632   4.157  20.360  0.00  0.00    -0.265 N 
ATOM    120  CZ  ARG A   4       5.671   4.981  20.372  0.00  0.00    +0.342 C 
ATOM    121  NH2 ARG A   4       6.707   4.767  21.180  0.00  0.00    -0.292 N 
ATOM    122 HH21 ARG A   4       6.710   3.943  21.815  0.00  0.00    +0.255 HD
ATOM    123 HH22 ARG A   4       7.514   5.424  21.176  0.00  0.00    +0.255 HD
ATOM    124  NH1 ARG A   4       5.662   6.045  19.588  0.00  0.00    -0.292 N 
ATOM    125 HH11 ARG A   4       6.471   6.698  19.589  0.00  0.00    +0.255 HD
ATOM    126 HH12 ARG A   4       4.846   6.229  18.970  0.00  0.00    +0.255 HD
ATOM    127  HE  ARG A   4       3.842   4.387  19.724  0.00  0.00    +0.259 HD
ENDBRANCH 118 119
ENDBRANCH 117 118
ENDBRANCH 116 117
ENDBRANCH  88 116
ENDBRANCH  84  88
ENDBRANCH  83  85
BRANCH  83 128
ATOM    128  CB  PHE A   5       6.974   3.988  27.201  0.00  0.00    +0.055 C 
BRANCH 128 129
ATOM    129  CG  PHE A   5       5.941   4.990  26.748  0.00  0.00    -0.020 A 
ATOM    130  CD2 PHE A   5       6.278   6.335  26.643  0.00  0.00    -0.004 A 
ATOM    131  CE2 PHE A   5       5.345   7.284  26.209  0.00  0.00    -0.000 A 
ATOM    132  CZ  PHE A   5       4.079   6.883  25.857  0.00  0.00    -0.000 A 
ATOM    133  CE1 PHE A   5       3.710   5.515  25.945  0.00  0.00    -0.000 A 
ATOM    134  CD1 PHE A   5       4.660   4.579  26.384  0.00  0.00    -0.004 A 
ENDBRANCH 128 129
ENDBRANCH  83 128
ENDBRANCH  79  83
ENDBRANCH  78  81
BRANCH  78 135
ATOM    135  CB  HIS A   6       9.992  -0.051  28.299  0.00  0.00    +0.076 C 
BRANCH 135 136
ATOM    136  CG  HIS A   6       9.679   0.859  29.440  0.00  0.00    +0.082 A 
ATOM    137  CD2 HIS A   6       8.523   1.078  30.106  0.00  0.00    +0.115 A 
ATOM    138  NE2 HIS A   6       8.795   1.979  31.102  0.00  0.00    -0.221 NA
ATOM    139  CE1 HIS A   6      10.082   2.283  31.067  0.00  0.00    +0.199 A 
ATOM    140  ND1 HIS A   6      10.635   1.634  30.059  0.00  0.00    -0.227 NA
ENDBRANCH 135 136
ENDBRANCH  78 135
ENDBRANCH   1  78
TORSDOF 47
REMARK  Name = ../refined-set-2016/3uu1/3uu1_pocket.pdb
REMARK  97 active torsions:
REMARK  status: ('A' for Active; 'I' for Inactive)
REMARK    1  A    between atoms: _1  and  _3
REMARK    2  A    between atoms: _3  and  _4
REMARK    3  A    between atoms: _3  and  _6
REMARK    4  A    between atoms: _6  and  _7
REMARK    5  A    between atoms: _7  and  _8
REMARK    6  A    between atoms: _10  and  _12
REMARK    7  A    between atoms: _12  and  _13
REMARK    8  A    between atoms: _12  and  _15
REMARK    9  A    between atoms: _15  and  _16
REMARK   10  A    between atoms: _16  and  _17
REMARK   11  A    between atoms: _19  and  _21
REMARK   12  A    between atoms: _21  and  _22
REMARK   13  A    between atoms: _21  and  _24
REMARK   14  A    between atoms: _24  and  _25
REMARK   15  A    between atoms: _30  and  _32
REMARK   16  A    between atoms: _32  and  _33
REMARK   17  A    between atoms: _35  and  _37
REMARK   18  A    between atoms: _37  and  _38
REMARK   19  A    between atoms: _37  and  _40
REMARK   20  A    between atoms: _40  and  _41
REMARK   21  A    between atoms: _46  and  _48
REMARK   22  A    between atoms: _48  and  _49
REMARK   23  A    between atoms: _48  and  _51
REMARK   24  A    between atoms: _51  and  _52
REMARK   25  A    between atoms: _52  and  _53
REMARK   26  A    between atoms: _53  and  _54
REMARK   27  A    between atoms: _63  and  _65
REMARK   28  A    between atoms: _65  and  _66
REMARK   29  A    between atoms: _69  and  _71
REMARK   30  A    between atoms: _71  and  _72
REMARK   31  A    between atoms: _71  and  _74
REMARK   32  A    between atoms: _74  and  _75
REMARK   33  A    between atoms: _81  and  _83
REMARK   34  A    between atoms: _83  and  _84
REMARK   35  A    between atoms: _88  and  _89
REMARK   36  A    between atoms: _94  and  _96
REMARK   37  A    between atoms: _96  and  _97
REMARK   38  A    between atoms: _96  and  _99
REMARK   39  A    between atoms: _99  and  _100
REMARK   40  A    between atoms: _100  and  _101
REMARK   41  A    between atoms: _101  and  _102
REMARK   42  A    between atoms: _111  and  _113
REMARK   43  A    between atoms: _113  and  _114
REMARK   44  A    between atoms: _113  and  _116
REMARK   45  A    between atoms: _116  and  _117
REMARK   46  A    between atoms: _123  and  _125
REMARK   47  A    between atoms: _125  and  _126
REMARK   48  A    between atoms: _125  and  _128
REMARK   49  A    between atoms: _128  and  _129
REMARK   50  A    between atoms: _135  and  _136
REMARK   51  A    between atoms: _141  and  _143
REMARK   52  A    between atoms: _143  and  _144
REMARK   53  A    between atoms: _143  and  _146
REMARK   54  A    between atoms: _146  and  _147
REMARK   55  A    between atoms: _149  and  _151
REMARK   56  A    between atoms: _151  and  _152
REMARK   57  A    between atoms: _151  and  _154
REMARK   58  A    between atoms: _154  and  _155
REMARK   59  A    between atoms: _160  and  _161
REMARK   60  A    between atoms: _163  and  _165
REMARK   61  A    between atoms: _165  and  _166
REMARK   62  A    between atoms: _165  and  _168
REMARK   63  A    between atoms: _168  and  _169
REMARK   64  A    between atoms: _169  and  _170
REMARK   65  A    between atoms: _170  and  _171
REMARK   66  A    between atoms: _180  and  _182
REMARK   67  A    between atoms: _182  and  _183
REMARK   68  A    between atoms: _182  and  _185
REMARK   69  A    between atoms: _185  and  _186
REMARK   70  A    between atoms: _191  and  _193
REMARK   71  A    between atoms: _193  and  _194
REMARK   72  A    between atoms: _197  and  _199
REMARK   73  A    between atoms: _199  and  _200
REMARK   74  A    between atoms: _203  and  _205
REMARK   75  A    between atoms: _205  and  _206
REMARK   76  A    between atoms: _209  and  _211
REMARK   77  A    between atoms: _211  and  _212
REMARK   78  A    between atoms: _211  and  _214
REMARK   79  A    between atoms: _214  and  _215
REMARK   80  A    between atoms: _215  and  _216
REMARK   81  A    between atoms: _216  and  _217
REMARK   82  A    between atoms: _226  and  _228
REMARK   83  A    between atoms: _228  and  _229
REMARK   84  A    between atoms: _228  and  _231
REMARK   85  A    between atoms: _231  and  _232
REMARK   86  A    between atoms: _232  and  _233
REMARK   87  A    between atoms: _233  and  _234
REMARK   88  A    between atoms: _243  and  _245
REMARK   89  A    between atoms: _245  and  _246
REMARK   90  A    between atoms: _245  and  _248
REMARK   91  A    between atoms: _248  and  _249
REMARK   92  A    between atoms: _252  and  _254
REMARK   93  A    between atoms: _254  and  _255
REMARK   94  A    between atoms: _257  and  _259
REMARK   95  A    between atoms: _259  and  _260
REMARK   96  A    between atoms: _259  and  _262
REMARK   97  A    between atoms: _262  and  _263
REMARK                            x       y       z     vdW  Elec       q    Type
REMARK                         _______ _______ _______ _____ _____    ______ ____
ROOT
ATOM      1  C   ARG A   1       9.865 -14.370  31.541  0.00  0.00    +0.238 C 
ATOM      2  O   ARG A   1       9.456 -15.172  32.368  0.00  0.00    -0.274 OA
ATOM      3  N   ARG A   2       9.430 -14.321  30.285  0.00  0.00    -0.298 N 
ATOM      4  H   ARG A   2       9.770 -13.558  29.665  0.00  0.00    +0.150 HD
ENDROOT
BRANCH   1   5
ATOM      5  CA  ARG A   1      10.939 -13.355  31.916  0.00  0.00    +0.145 C 
BRANCH   5   6
ATOM      6  N   ARG A   1      11.957 -13.232  30.872  0.00  0.00    -0.238 NA
ATOM      7  H   ARG A   1      12.145 -12.309  30.431  0.00  0.00    +0.142 HD
ENDBRANCH   5   6
BRANCH   5   8
ATOM      8  CB  ARG A   1      10.287 -12.012  32.178  0.00  0.00    +0.030 C 
BRANCH   8   9
ATOM      9  CG  ARG A   1      11.138 -11.110  33.024  0.00  0.00    +0.045 C 
BRANCH   9  10
ATOM     10  CD  ARG A   1      10.389  -9.822  33.304  0.00  0.00    +0.174 C 
BRANCH  10  11
ATOM     11  NE  ARG A   1       9.106 -10.022  34.000  0.00  0.00    -0.265 N 
ATOM     12  HE  ARG A   1       8.910 -10.961  34.402  0.00  0.00    +0.259 HD
ATOM     13  CZ  ARG A   1       8.182  -9.076  34.146  0.00  0.00    +0.342 C 
ATOM     14  NH2 ARG A   1       7.054  -9.345  34.803  0.00  0.00    -0.292 N 
ATOM     15 HH21 ARG A   1       6.897 -10.293  35.201  0.00  0.00    +0.255 HD
ATOM     16 HH22 ARG A   1       6.331  -8.607  34.918  0.00  0.00    +0.255 HD
ATOM     17  NH1 ARG A   1       8.387  -7.858  33.633  0.00  0.00    -0.292 N 
ATOM     18 HH11 ARG A   1       7.665  -7.118  33.747  0.00  0.00    +0.255 HD
ATOM     19 HH12 ARG A   1       9.268  -7.651  33.121  0.00  0.00    +0.255 HD
ENDBRANCH  10  11
ENDBRANCH   9  10
ENDBRANCH   8   9
ENDBRANCH   5   8
ENDBRANCH   1   5
BRANCH   3  20
ATOM     20  CA  ARG A   2       8.491 -15.303  29.748  0.00  0.00    +0.137 C 
BRANCH  20  21
ATOM     21  C   ARG A   2       9.067 -16.723  29.772  0.00  0.00    +0.227 C 
ATOM     22  O   ARG A   2       8.384 -17.669  30.203  0.00  0.00    -0.286 OA
ENDBRANCH  20  21
BRANCH  20  23
ATOM     23  CB  ARG A   2       8.106 -14.969  28.310  0.00  0.00    +0.031 C 
BRANCH  23  24
ATOM     24  CG  ARG A   2       6.820 -14.207  28.165  0.00  0.00    +0.045 C 
BRANCH  24  25
ATOM     25  CD  ARG A   2       6.447 -14.077  26.686  0.00  0.00    +0.174 C 
BRANCH  25  26
ATOM     26  NE  ARG A   2       7.486 -13.392  25.910  0.00  0.00    -0.265 N 
ATOM     27  CZ  ARG A   2       7.608 -12.063  25.813  0.00  0.00    +0.342 C 
ATOM     28  NH2 ARG A   2       6.749 -11.250  26.443  0.00  0.00    -0.292 N 
ATOM     29 HH21 ARG A   2       5.978 -11.650  27.014  0.00  0.00    +0.255 HD
ATOM     30 HH22 ARG A   2       6.853 -10.219  26.360  0.00  0.00    +0.255 HD
ATOM     31  NH1 ARG A   2       8.590 -11.541  25.082  0.00  0.00    -0.292 N 
ATOM     32 HH11 ARG A   2       8.688 -10.509  25.004  0.00  0.00    +0.255 HD
ATOM     33 HH12 ARG A   2       9.259 -12.166  24.589  0.00  0.00    +0.255 HD
ATOM     34  HE  ARG A   2       8.176 -13.980  25.400  0.00  0.00    +0.259 HD
ENDBRANCH  25  26
ENDBRANCH  24  25
ENDBRANCH  23  24
ENDBRANCH  20  23
ENDBRANCH   3  20
TORSDOF 12
REMARK  Name = ../refined-set-2016/3uu1/3uu1_pocket.pdb
REMARK  97 active torsions:
REMARK  status: ('A' for Active; 'I' for Inactive)
REMARK    1  A    between atoms: _1  and  _3
REMARK    2  A    between atoms: _3  and  _4
REMARK    3  A    between atoms: _3  and  _6
REMARK    4  A    between atoms: _6  and  _7
REMARK    5  A    between atoms: _7  and  _8
REMARK    6  A    between atoms: _10  and  _12
REMARK    7  A    between atoms: _12  and  _13
REMARK    8  A    between atoms: _12  and  _15
REMARK    9  A    between atoms: _15  and  _16
REMARK   10  A    between atoms: _16  and  _17
REMARK   11  A    between atoms: _19  and  _21
REMARK   12  A    between atoms: _21  and  _22
REMARK   13  A    between atoms: _21  and  _24
REMARK   14  A    between atoms: _24  and  _25
REMARK   15  A    between atoms: _30  and  _32
REMARK   16  A    between atoms: _32  and  _33
REMARK   17  A    between atoms: _35  and  _37
REMARK   18  A    between atoms: _37  and  _38
REMARK   19  A    between atoms: _37  and  _40
REMARK   20  A    between atoms: _40  and  _41
REMARK   21  A    between atoms: _46  and  _48
REMARK   22  A    between atoms: _48  and  _49
REMARK   23  A    between atoms: _48  and  _51
REMARK   24  A    between atoms: _51  and  _52
REMARK   25  A    between atoms: _52  and  _53
REMARK   26  A    between atoms: _53  and  _54
REMARK   27  A    between atoms: _63  and  _65
REMARK   28  A    between atoms: _65  and  _66
REMARK   29  A    between atoms: _69  and  _71
REMARK   30  A    between atoms: _71  and  _72
REMARK   31  A    between atoms: _71  and  _74
REMARK   32  A    between atoms: _74  and  _75
REMARK   33  A    between atoms: _81  and  _83
REMARK   34  A    between atoms: _83  and  _84
REMARK   35  A    between atoms: _88  and  _89
REMARK   36  A    between atoms: _94  and  _96
REMARK   37  A    between atoms: _96  and  _97
REMARK   38  A    between atoms: _96  and  _99
REMARK   39  A    between atoms: _99  and  _100
REMARK   40  A    between atoms: _100  and  _101
REMARK   41  A    between atoms: _101  and  _102
REMARK   42  A    between atoms: _111  and  _113
REMARK   43  A    between atoms: _113  and  _114
REMARK   44  A    between atoms: _113  and  _116
REMARK   45  A    between atoms: _116  and  _117
REMARK   46  A    between atoms: _123  and  _125
REMARK   47  A    between atoms: _125  and  _126
REMARK   48  A    between atoms: _125  and  _128
REMARK   49  A    between atoms: _128  and  _129
REMARK   50  A    between atoms: _135  and  _136
REMARK   51  A    between atoms: _141  and  _143
REMARK   52  A    between atoms: _143  and  _144
REMARK   53  A    between atoms: _143  and  _146
REMARK   54  A    between atoms: _146  and  _147
REMARK   55  A    between atoms: _149  and  _151
REMARK   56  A    between atoms: _151  and  _152
REMARK   57  A    between atoms: _151  and  _154
REMARK   58  A    between atoms: _154  and  _155
REMARK   59  A    between atoms: _160  and  _161
REMARK   60  A    between atoms: _163  and  _165
REMARK   61  A    between atoms: _165  and  _166
REMARK   62  A    between atoms: _165  and  _168
REMARK   63  A    between atoms: _168  and  _169
REMARK   64  A    between atoms: _169  and  _170
REMARK   65  A    between atoms: _170  and  _171
REMARK   66  A    between atoms: _180  and  _182
REMARK   67  A    between atoms: _182  and  _183
REMARK   68  A    between atoms: _182  and  _185
REMARK   69  A    between atoms: _185  and  _186
REMARK   70  A    between atoms: _191  and  _193
REMARK   71  A    between atoms: _193  and  _194
REMARK   72  A    between atoms: _197  and  _199
REMARK   73  A    between atoms: _199  and  _200
REMARK   74  A    between atoms: _203  and  _205
REMARK   75  A    between atoms: _205  and  _206
REMARK   76  A    between atoms: _209  and  _211
REMARK   77  A    between atoms: _211  and  _212
REMARK   78  A    between atoms: _211  and  _214
REMARK   79  A    between atoms: _214  and  _215
REMARK   80  A    between atoms: _215  and  _216
REMARK   81  A    between atoms: _216  and  _217
REMARK   82  A    between atoms: _226  and  _228
REMARK   83  A    between atoms: _228  and  _229
REMARK   84  A    between atoms: _228  and  _231
REMARK   85  A    between atoms: _231  and  _232
REMARK   86  A    between atoms: _232  and  _233
REMARK   87  A    between atoms: _233  and  _234
REMARK   88  A    between atoms: _243  and  _245
REMARK   89  A    between atoms: _245  and  _246
REMARK   90  A    between atoms: _245  and  _248
REMARK   91  A    between atoms: _248  and  _249
REMARK   92  A    between atoms: _252  and  _254
REMARK   93  A    between atoms: _254  and  _255
REMARK   94  A    between atoms: _257  and  _259
REMARK   95  A    between atoms: _259  and  _260
REMARK   96  A    between atoms: _259  and  _262
REMARK   97  A    between atoms: _262  and  _263
REMARK                            x       y       z     vdW  Elec       q    Type
REMARK                         _______ _______ _______ _____ _____    ______ ____
ROOT
ATOM      1  CA  LEU A   1       9.932  -2.903  37.770  0.00  0.00    +0.145 C 
ENDROOT
BRANCH   1   2
ATOM      2  C   LEU A   1       8.848  -2.042  37.110  0.00  0.00    +0.238 C 
ATOM      3  O   LEU A   1       8.982  -0.827  37.060  0.00  0.00    -0.274 OA
ATOM      4  N   GLY A   2       7.801  -2.677  36.582  0.00  0.00    -0.297 N 
ATOM      5  H   GLY A   2       7.788  -3.717  36.593  0.00  0.00    +0.150 HD
BRANCH   4   6
ATOM      6  CA  GLY A   2       6.651  -1.953  35.978  0.00  0.00    +0.163 C 
BRANCH   6   7
ATOM      7  C   GLY A   2       6.153  -0.747  36.764  0.00  0.00    +0.229 C 
ATOM      8  O   GLY A   2       6.099   0.362  36.232  0.00  0.00    -0.286 OA
ENDBRANCH   6   7
ENDBRANCH   4   6
ENDBRANCH   1   2
BRANCH   1   9
ATOM      9  N   LEU A   1       9.450  -4.093  38.479  0.00  0.00    -0.238 NA
ATOM     10  H   LEU A   1       9.487  -5.026  38.022  0.00  0.00    +0.142 HD
ENDBRANCH   1   9
BRANCH   1  11
ATOM     11  CB  LEU A   1      11.022  -3.251  36.768  0.00  0.00    +0.026 C 
BRANCH  11  12
ATOM     12  CG  LEU A   1      12.306  -3.794  37.410  0.00  0.00    +0.002 C 
ATOM     13  CD2 LEU A   1      12.867  -2.789  38.413  0.00  0.00    +0.000 C 
ATOM     14  CD1 LEU A   1      13.343  -4.129  36.339  0.00  0.00    +0.000 C 
ENDBRANCH  11  12
ENDBRANCH   1  11
TORSDOF 6
REMARK  Name = ../refined-set-2016/3uu1/3uu1_pocket.pdb
REMARK  97 active torsions:
REMARK  status: ('A' for Active; 'I' for Inactive)
REMARK    1  A    between atoms: _1  and  _3
REMARK    2  A    between atoms: _3  and  _4
REMARK    3  A    between atoms: _3  and  _6
REMARK    4  A    between atoms: _6  and  _7
REMARK    5  A    between atoms: _7  and  _8
REMARK    6  A    between atoms: _10  and  _12
REMARK    7  A    between atoms: _12  and  _13
REMARK    8  A    between atoms: _12  and  _15
REMARK    9  A    between atoms: _15  and  _16
REMARK   10  A    between atoms: _16  and  _17
REMARK   11  A    between atoms: _19  and  _21
REMARK   12  A    between atoms: _21  and  _22
REMARK   13  A    between atoms: _21  and  _24
REMARK   14  A    between atoms: _24  and  _25
REMARK   15  A    between atoms: _30  and  _32
REMARK   16  A    between atoms: _32  and  _33
REMARK   17  A    between atoms: _35  and  _37
REMARK   18  A    between atoms: _37  and  _38
REMARK   19  A    between atoms: _37  and  _40
REMARK   20  A    between atoms: _40  and  _41
REMARK   21  A    between atoms: _46  and  _48
REMARK   22  A    between atoms: _48  and  _49
REMARK   23  A    between atoms: _48  and  _51
REMARK   24  A    between atoms: _51  and  _52
REMARK   25  A    between atoms: _52  and  _53
REMARK   26  A    between atoms: _53  and  _54
REMARK   27  A    between atoms: _63  and  _65
REMARK   28  A    between atoms: _65  and  _66
REMARK   29  A    between atoms: _69  and  _71
REMARK   30  A    between atoms: _71  and  _72
REMARK   31  A    between atoms: _71  and  _74
REMARK   32  A    between atoms: _74  and  _75
REMARK   33  A    between atoms: _81  and  _83
REMARK   34  A    between atoms: _83  and  _84
REMARK   35  A    between atoms: _88  and  _89
REMARK   36  A    between atoms: _94  and  _96
REMARK   37  A    between atoms: _96  and  _97
REMARK   38  A    between atoms: _96  and  _99
REMARK   39  A    between atoms: _99  and  _100
REMARK   40  A    between atoms: _100  and  _101
REMARK   41  A    between atoms: _101  and  _102
REMARK   42  A    between atoms: _111  and  _113
REMARK   43  A    between atoms: _113  and  _114
REMARK   44  A    between atoms: _113  and  _116
REMARK   45  A    between atoms: _116  and  _117
REMARK   46  A    between atoms: _123  and  _125
REMARK   47  A    between atoms: _125  and  _126
REMARK   48  A    between atoms: _125  and  _128
REMARK   49  A    between atoms: _128  and  _129
REMARK   50  A    between atoms: _135  and  _136
REMARK   51  A    between atoms: _141  and  _143
REMARK   52  A    between atoms: _143  and  _144
REMARK   53  A    between atoms: _143  and  _146
REMARK   54  A    between atoms: _146  and  _147
REMARK   55  A    between atoms: _149  and  _151
REMARK   56  A    between atoms: _151  and  _152
REMARK   57  A    between atoms: _151  and  _154
REMARK   58  A    between atoms: _154  and  _155
REMARK   59  A    between atoms: _160  and  _161
REMARK   60  A    between atoms: _163  and  _165
REMARK   61  A    between atoms: _165  and  _166
REMARK   62  A    between atoms: _165  and  _168
REMARK   63  A    between atoms: _168  and  _169
REMARK   64  A    between atoms: _169  and  _170
REMARK   65  A    between atoms: _170  and  _171
REMARK   66  A    between atoms: _180  and  _182
REMARK   67  A    between atoms: _182  and  _183
REMARK   68  A    between atoms: _182  and  _185
REMARK   69  A    between atoms: _185  and  _186
REMARK   70  A    between atoms: _191  and  _193
REMARK   71  A    between atoms: _193  and  _194
REMARK   72  A    between atoms: _197  and  _199
REMARK   73  A    between atoms: _199  and  _200
REMARK   74  A    between atoms: _203  and  _205
REMARK   75  A    between atoms: _205  and  _206
REMARK   76  A    between atoms: _209  and  _211
REMARK   77  A    between atoms: _211  and  _212
REMARK   78  A    between atoms: _211  and  _214
REMARK   79  A    between atoms: _214  and  _215
REMARK   80  A    between atoms: _215  and  _216
REMARK   81  A    between atoms: _216  and  _217
REMARK   82  A    between atoms: _226  and  _228
REMARK   83  A    between atoms: _228  and  _229
REMARK   84  A    between atoms: _228  and  _231
REMARK   85  A    between atoms: _231  and  _232
REMARK   86  A    between atoms: _232  and  _233
REMARK   87  A    between atoms: _233  and  _234
REMARK   88  A    between atoms: _243  and  _245
REMARK   89  A    between atoms: _245  and  _246
REMARK   90  A    between atoms: _245  and  _248
REMARK   91  A    between atoms: _248  and  _249
REMARK   92  A    between atoms: _252  and  _254
REMARK   93  A    between atoms: _254  and  _255
REMARK   94  A    between atoms: _257  and  _259
REMARK   95  A    between atoms: _259  and  _260
REMARK   96  A    between atoms: _259  and  _262
REMARK   97  A    between atoms: _262  and  _263
REMARK                            x       y       z     vdW  Elec       q    Type
REMARK                         _______ _______ _______ _____ _____    ______ ____
ROOT
ATOM      1  CA  THR A   1       9.219   2.636  35.558  0.00  0.00    +0.160 C 
ENDROOT
BRANCH   1   2
ATOM      2  N   THR A   1       8.654   2.190  36.848  0.00  0.00    -0.237 NA
ATOM      3  H   THR A   1       7.783   1.622  36.842  0.00  0.00    +0.142 HD
ENDBRANCH   1   2
BRANCH   1   4
ATOM      4  CB  THR A   1       9.900   1.481  34.810  0.00  0.00    +0.134 C 
ATOM      5  CG2 THR A   1      11.142   0.992  35.579  0.00  0.00    +0.034 C 
BRANCH   4   6
ATOM      6  OG1 THR A   1       8.991   0.391  34.738  0.00  0.00    -0.383 OA
ATOM      7  HG1 THR A   1       8.748   0.104  35.654  0.00  0.00    +0.210 HD
ENDBRANCH   4   6
ENDBRANCH   1   4
BRANCH   1   8
ATOM      8  C   THR A   1       8.180   3.333  34.663  0.00  0.00    +0.227 C 
ATOM      9  O   THR A   1       8.310   3.339  33.424  0.00  0.00    -0.287 OA
ENDBRANCH   1   8
TORSDOF 4
REMARK  Name = ../refined-set-2016/3uu1/3uu1_pocket.pdb
REMARK  97 active torsions:
REMARK  status: ('A' for Active; 'I' for Inactive)
REMARK    1  A    between atoms: _1  and  _3
REMARK    2  A    between atoms: _3  and  _4
REMARK    3  A    between atoms: _3  and  _6
REMARK    4  A    between atoms: _6  and  _7
REMARK    5  A    between atoms: _7  and  _8
REMARK    6  A    between atoms: _10  and  _12
REMARK    7  A    between atoms: _12  and  _13
REMARK    8  A    between atoms: _12  and  _15
REMARK    9  A    between atoms: _15  and  _16
REMARK   10  A    between atoms: _16  and  _17
REMARK   11  A    between atoms: _19  and  _21
REMARK   12  A    between atoms: _21  and  _22
REMARK   13  A    between atoms: _21  and  _24
REMARK   14  A    between atoms: _24  and  _25
REMARK   15  A    between atoms: _30  and  _32
REMARK   16  A    between atoms: _32  and  _33
REMARK   17  A    between atoms: _35  and  _37
REMARK   18  A    between atoms: _37  and  _38
REMARK   19  A    between atoms: _37  and  _40
REMARK   20  A    between atoms: _40  and  _41
REMARK   21  A    between atoms: _46  and  _48
REMARK   22  A    between atoms: _48  and  _49
REMARK   23  A    between atoms: _48  and  _51
REMARK   24  A    between atoms: _51  and  _52
REMARK   25  A    between atoms: _52  and  _53
REMARK   26  A    between atoms: _53  and  _54
REMARK   27  A    between atoms: _63  and  _65
REMARK   28  A    between atoms: _65  and  _66
REMARK   29  A    between atoms: _69  and  _71
REMARK   30  A    between atoms: _71  and  _72
REMARK   31  A    between atoms: _71  and  _74
REMARK   32  A    between atoms: _74  and  _75
REMARK   33  A    between atoms: _81  and  _83
REMARK   34  A    between atoms: _83  and  _84
REMARK   35  A    between atoms: _88  and  _89
REMARK   36  A    between atoms: _94  and  _96
REMARK   37  A    between atoms: _96  and  _97
REMARK   38  A    between atoms: _96  and  _99
REMARK   39  A    between atoms: _99  and  _100
REMARK   40  A    between atoms: _100  and  _101
REMARK   41  A    between atoms: _101  and  _102
REMARK   42  A    between atoms: _111  and  _113
REMARK   43  A    between atoms: _113  and  _114
REMARK   44  A    between atoms: _113  and  _116
REMARK   45  A    between atoms: _116  and  _117
REMARK   46  A    between atoms: _123  and  _125
REMARK   47  A    between atoms: _125  and  _126
REMARK   48  A    between atoms: _125  and  _128
REMARK   49  A    between atoms: _128  and  _129
REMARK   50  A    between atoms: _135  and  _136
REMARK   51  A    between atoms: _141  and  _143
REMARK   52  A    between atoms: _143  and  _144
REMARK   53  A    between atoms: _143  and  _146
REMARK   54  A    between atoms: _146  and  _147
REMARK   55  A    between atoms: _149  and  _151
REMARK   56  A    between atoms: _151  and  _152
REMARK   57  A    between atoms: _151  and  _154
REMARK   58  A    between atoms: _154  and  _155
REMARK   59  A    between atoms: _160  and  _161
REMARK   60  A    between atoms: _163  and  _165
REMARK   61  A    between atoms: _165  and  _166
REMARK   62  A    between atoms: _165  and  _168
REMARK   63  A    between atoms: _168  and  _169
REMARK   64  A    between atoms: _169  and  _170
REMARK   65  A    between atoms: _170  and  _171
REMARK   66  A    between atoms: _180  and  _182
REMARK   67  A    between atoms: _182  and  _183
REMARK   68  A    between atoms: _182  and  _185
REMARK   69  A    between atoms: _185  and  _186
REMARK   70  A    between atoms: _191  and  _193
REMARK   71  A    between atoms: _193  and  _194
REMARK   72  A    between atoms: _197  and  _199
REMARK   73  A    between atoms: _199  and  _200
REMARK   74  A    between atoms: _203  and  _205
REMARK   75  A    between atoms: _205  and  _206
REMARK   76  A    between atoms: _209  and  _211
REMARK   77  A    between atoms: _211  and  _212
REMARK   78  A    between atoms: _211  and  _214
REMARK   79  A    between atoms: _214  and  _215
REMARK   80  A    between atoms: _215  and  _216
REMARK   81  A    between atoms: _216  and  _217
REMARK   82  A    between atoms: _226  and  _228
REMARK   83  A    between atoms: _228  and  _229
REMARK   84  A    between atoms: _228  and  _231
REMARK   85  A    between atoms: _231  and  _232
REMARK   86  A    between atoms: _232  and  _233
REMARK   87  A    between atoms: _233  and  _234
REMARK   88  A    between atoms: _243  and  _245
REMARK   89  A    between atoms: _245  and  _246
REMARK   90  A    between atoms: _245  and  _248
REMARK   91  A    between atoms: _248  and  _249
REMARK   92  A    between atoms: _252  and  _254
REMARK   93  A    between atoms: _254  and  _255
REMARK   94  A    between atoms: _257  and  _259
REMARK   95  A    between atoms: _259  and  _260
REMARK   96  A    between atoms: _259  and  _262
REMARK   97  A    between atoms: _262  and  _263
REMARK                            x       y       z     vdW  Elec       q    Type
REMARK                         _______ _______ _______ _____ _____    ______ ____
ROOT
ATOM      1  O   HOH     1      13.135   1.523  29.034  0.00  0.00    +0.000 OA
ENDROOT
TORSDOF 0
REMARK  Name = ../refined-set-2016/3uu1/3uu1_pocket.pdb
REMARK  97 active torsions:
REMARK  status: ('A' for Active; 'I' for Inactive)
REMARK    1  A    between atoms: _1  and  _3
REMARK    2  A    between atoms: _3  and  _4
REMARK    3  A    between atoms: _3  and  _6
REMARK    4  A    between atoms: _6  and  _7
REMARK    5  A    between atoms: _7  and  _8
REMARK    6  A    between atoms: _10  and  _12
REMARK    7  A    between atoms: _12  and  _13
REMARK    8  A    between atoms: _12  and  _15
REMARK    9  A    between atoms: _15  and  _16
REMARK   10  A    between atoms: _16  and  _17
REMARK   11  A    between atoms: _19  and  _21
REMARK   12  A    between atoms: _21  and  _22
REMARK   13  A    between atoms: _21  and  _24
REMARK   14  A    between atoms: _24  and  _25
REMARK   15  A    between atoms: _30  and  _32
REMARK   16  A    between atoms: _32  and  _33
REMARK   17  A    between atoms: _35  and  _37
REMARK   18  A    between atoms: _37  and  _38
REMARK   19  A    between atoms: _37  and  _40
REMARK   20  A    between atoms: _40  and  _41
REMARK   21  A    between atoms: _46  and  _48
REMARK   22  A    between atoms: _48  and  _49
REMARK   23  A    between atoms: _48  and  _51
REMARK   24  A    between atoms: _51  and  _52
REMARK   25  A    between atoms: _52  and  _53
REMARK   26  A    between atoms: _53  and  _54
REMARK   27  A    between atoms: _63  and  _65
REMARK   28  A    between atoms: _65  and  _66
REMARK   29  A    between atoms: _69  and  _71
REMARK   30  A    between atoms: _71  and  _72
REMARK   31  A    between atoms: _71  and  _74
REMARK   32  A    between atoms: _74  and  _75
REMARK   33  A    between atoms: _81  and  _83
REMARK   34  A    between atoms: _83  and  _84
REMARK   35  A    between atoms: _88  and  _89
REMARK   36  A    between atoms: _94  and  _96
REMARK   37  A    between atoms: _96  and  _97
REMARK   38  A    between atoms: _96  and  _99
REMARK   39  A    between atoms: _99  and  _100
REMARK   40  A    between atoms: _100  and  _101
REMARK   41  A    between atoms: _101  and  _102
REMARK   42  A    between atoms: _111  and  _113
REMARK   43  A    between atoms: _113  and  _114
REMARK   44  A    between atoms: _113  and  _116
REMARK   45  A    between atoms: _116  and  _117
REMARK   46  A    between atoms: _123  and  _125
REMARK   47  A    between atoms: _125  and  _126
REMARK   48  A    between atoms: _125  and  _128
REMARK   49  A    between atoms: _128  and  _129
REMARK   50  A    between atoms: _135  and  _136
REMARK   51  A    between atoms: _141  and  _143
REMARK   52  A    between atoms: _143  and  _144
REMARK   53  A    between atoms: _143  and  _146
REMARK   54  A    between atoms: _146  and  _147
REMARK   55  A    between atoms: _149  and  _151
REMARK   56  A    between atoms: _151  and  _152
REMARK   57  A    between atoms: _151  and  _154
REMARK   58  A    between atoms: _154  and  _155
REMARK   59  A    between atoms: _160  and  _161
REMARK   60  A    between atoms: _163  and  _165
REMARK   61  A    between atoms: _165  and  _166
REMARK   62  A    between atoms: _165  and  _168
REMARK   63  A    between atoms: _168  and  _169
REMARK   64  A    between atoms: _169  and  _170
REMARK   65  A    between atoms: _170  and  _171
REMARK   66  A    between atoms: _180  and  _182
REMARK   67  A    between atoms: _182  and  _183
REMARK   68  A    between atoms: _182  and  _185
REMARK   69  A    between atoms: _185  and  _186
REMARK   70  A    between atoms: _191  and  _193
REMARK   71  A    between atoms: _193  and  _194
REMARK   72  A    between atoms: _197  and  _199
REMARK   73  A    between atoms: _199  and  _200
REMARK   74  A    between atoms: _203  and  _205
REMARK   75  A    between atoms: _205  and  _206
REMARK   76  A    between atoms: _209  and  _211
REMARK   77  A    between atoms: _211  and  _212
REMARK   78  A    between atoms: _211  and  _214
REMARK   79  A    between atoms: _214  and  _215
REMARK   80  A    between atoms: _215  and  _216
REMARK   81  A    between atoms: _216  and  _217
REMARK   82  A    between atoms: _226  and  _228
REMARK   83  A    between atoms: _228  and  _229
REMARK   84  A    between atoms: _228  and  _231
REMARK   85  A    between atoms: _231  and  _232
REMARK   86  A    between atoms: _232  and  _233
REMARK   87  A    between atoms: _233  and  _234
REMARK   88  A    between atoms: _243  and  _245
REMARK   89  A    between atoms: _245  and  _246
REMARK   90  A    between atoms: _245  and  _248
REMARK   91  A    between atoms: _248  and  _249
REMARK   92  A    between atoms: _252  and  _254
REMARK   93  A    between atoms: _254  and  _255
REMARK   94  A    between atoms: _257  and  _259
REMARK   95  A    between atoms: _259  and  _260
REMARK   96  A    between atoms: _259  and  _262
REMARK   97  A    between atoms: _262  and  _263
REMARK                            x       y       z     vdW  Elec       q    Type
REMARK                         _______ _______ _______ _____ _____    ______ ____
ROOT
ATOM      1  O   HOH     1      13.417   1.225  26.382  0.00  0.00    +0.000 OA
ENDROOT
TORSDOF 0
REMARK  Name = ../refined-set-2016/3uu1/3uu1_pocket.pdb
REMARK  97 active torsions:
REMARK  status: ('A' for Active; 'I' for Inactive)
REMARK    1  A    between atoms: _1  and  _3
REMARK    2  A    between atoms: _3  and  _4
REMARK    3  A    between atoms: _3  and  _6
REMARK    4  A    between atoms: _6  and  _7
REMARK    5  A    between atoms: _7  and  _8
REMARK    6  A    between atoms: _10  and  _12
REMARK    7  A    between atoms: _12  and  _13
REMARK    8  A    between atoms: _12  and  _15
REMARK    9  A    between atoms: _15  and  _16
REMARK   10  A    between atoms: _16  and  _17
REMARK   11  A    between atoms: _19  and  _21
REMARK   12  A    between atoms: _21  and  _22
REMARK   13  A    between atoms: _21  and  _24
REMARK   14  A    between atoms: _24  and  _25
REMARK   15  A    between atoms: _30  and  _32
REMARK   16  A    between atoms: _32  and  _33
REMARK   17  A    between atoms: _35  and  _37
REMARK   18  A    between atoms: _37  and  _38
REMARK   19  A    between atoms: _37  and  _40
REMARK   20  A    between atoms: _40  and  _41
REMARK   21  A    between atoms: _46  and  _48
REMARK   22  A    between atoms: _48  and  _49
REMARK   23  A    between atoms: _48  and  _51
REMARK   24  A    between atoms: _51  and  _52
REMARK   25  A    between atoms: _52  and  _53
REMARK   26  A    between atoms: _53  and  _54
REMARK   27  A    between atoms: _63  and  _65
REMARK   28  A    between atoms: _65  and  _66
REMARK   29  A    between atoms: _69  and  _71
REMARK   30  A    between atoms: _71  and  _72
REMARK   31  A    between atoms: _71  and  _74
REMARK   32  A    between atoms: _74  and  _75
REMARK   33  A    between atoms: _81  and  _83
REMARK   34  A    between atoms: _83  and  _84
REMARK   35  A    between atoms: _88  and  _89
REMARK   36  A    between atoms: _94  and  _96
REMARK   37  A    between atoms: _96  and  _97
REMARK   38  A    between atoms: _96  and  _99
REMARK   39  A    between atoms: _99  and  _100
REMARK   40  A    between atoms: _100  and  _101
REMARK   41  A    between atoms: _101  and  _102
REMARK   42  A    between atoms: _111  and  _113
REMARK   43  A    between atoms: _113  and  _114
REMARK   44  A    between atoms: _113  and  _116
REMARK   45  A    between atoms: _116  and  _117
REMARK   46  A    between atoms: _123  and  _125
REMARK   47  A    between atoms: _125  and  _126
REMARK   48  A    between atoms: _125  and  _128
REMARK   49  A    between atoms: _128  and  _129
REMARK   50  A    between atoms: _135  and  _136
REMARK   51  A    between atoms: _141  and  _143
REMARK   52  A    between atoms: _143  and  _144
REMARK   53  A    between atoms: _143  and  _146
REMARK   54  A    between atoms: _146  and  _147
REMARK   55  A    between atoms: _149  and  _151
REMARK   56  A    between atoms: _151  and  _152
REMARK   57  A    between atoms: _151  and  _154
REMARK   58  A    between atoms: _154  and  _155
REMARK   59  A    between atoms: _160  and  _161
REMARK   60  A    between atoms: _163  and  _165
REMARK   61  A    between atoms: _165  and  _166
REMARK   62  A    between atoms: _165  and  _168
REMARK   63  A    between atoms: _168  and  _169
REMARK   64  A    between atoms: _169  and  _170
REMARK   65  A    between atoms: _170  and  _171
REMARK   66  A    between atoms: _180  and  _182
REMARK   67  A    between atoms: _182  and  _183
REMARK   68  A    between atoms: _182  and  _185
REMARK   69  A    between atoms: _185  and  _186
REMARK   70  A    between atoms: _191  and  _193
REMARK   71  A    between atoms: _193  and  _194
REMARK   72  A    between atoms: _197  and  _199
REMARK   73  A    between atoms: _199  and  _200
REMARK   74  A    between atoms: _203  and  _205
REMARK   75  A    between atoms: _205  and  _206
REMARK   76  A    between atoms: _209  and  _211
REMARK   77  A    between atoms: _211  and  _212
REMARK   78  A    between atoms: _211  and  _214
REMARK   79  A    between atoms: _214  and  _215
REMARK   80  A    between atoms: _215  and  _216
REMARK   81  A    between atoms: _216  and  _217
REMARK   82  A    between atoms: _226  and  _228
REMARK   83  A    between atoms: _228  and  _229
REMARK   84  A    between atoms: _228  and  _231
REMARK   85  A    between atoms: _231  and  _232
REMARK   86  A    between atoms: _232  and  _233
REMARK   87  A    between atoms: _233  and  _234
REMARK   88  A    between atoms: _243  and  _245
REMARK   89  A    between atoms: _245  and  _246
REMARK   90  A    between atoms: _245  and  _248
REMARK   91  A    between atoms: _248  and  _249
REMARK   92  A    between atoms: _252  and  _254
REMARK   93  A    between atoms: _254  and  _255
REMARK   94  A    between atoms: _257  and  _259
REMARK   95  A    between atoms: _259  and  _260
REMARK   96  A    between atoms: _259  and  _262
REMARK   97  A    between atoms: _262  and  _263
REMARK                            x       y       z     vdW  Elec       q    Type
REMARK                         _______ _______ _______ _____ _____    ______ ____
ROOT
ATOM      1  O   HOH     1      16.097  -5.944  27.427  0.00  0.00    +0.000 OA
ENDROOT
TORSDOF 0
REMARK  Name = ../refined-set-2016/3uu1/3uu1_pocket.pdb
REMARK  97 active torsions:
REMARK  status: ('A' for Active; 'I' for Inactive)
REMARK    1  A    between atoms: _1  and  _3
REMARK    2  A    between atoms: _3  and  _4
REMARK    3  A    between atoms: _3  and  _6
REMARK    4  A    between atoms: _6  and  _7
REMARK    5  A    between atoms: _7  and  _8
REMARK    6  A    between atoms: _10  and  _12
REMARK    7  A    between atoms: _12  and  _13
REMARK    8  A    between atoms: _12  and  _15
REMARK    9  A    between atoms: _15  and  _16
REMARK   10  A    between atoms: _16  and  _17
REMARK   11  A    between atoms: _19  and  _21
REMARK   12  A    between atoms: _21  and  _22
REMARK   13  A    between atoms: _21  and  _24
REMARK   14  A    between atoms: _24  and  _25
REMARK   15  A    between atoms: _30  and  _32
REMARK   16  A    between atoms: _32  and  _33
REMARK   17  A    between atoms: _35  and  _37
REMARK   18  A    between atoms: _37  and  _38
REMARK   19  A    between atoms: _37  and  _40
REMARK   20  A    between atoms: _40  and  _41
REMARK   21  A    between atoms: _46  and  _48
REMARK   22  A    between atoms: _48  and  _49
REMARK   23  A    between atoms: _48  and  _51
REMARK   24  A    between atoms: _51  and  _52
REMARK   25  A    between atoms: _52  and  _53
REMARK   26  A    between atoms: _53  and  _54
REMARK   27  A    between atoms: _63  and  _65
REMARK   28  A    between atoms: _65  and  _66
REMARK   29  A    between atoms: _69  and  _71
REMARK   30  A    between atoms: _71  and  _72
REMARK   31  A    between atoms: _71  and  _74
REMARK   32  A    between atoms: _74  and  _75
REMARK   33  A    between atoms: _81  and  _83
REMARK   34  A    between atoms: _83  and  _84
REMARK   35  A    between atoms: _88  and  _89
REMARK   36  A    between atoms: _94  and  _96
REMARK   37  A    between atoms: _96  and  _97
REMARK   38  A    between atoms: _96  and  _99
REMARK   39  A    between atoms: _99  and  _100
REMARK   40  A    between atoms: _100  and  _101
REMARK   41  A    between atoms: _101  and  _102
REMARK   42  A    between atoms: _111  and  _113
REMARK   43  A    between atoms: _113  and  _114
REMARK   44  A    between atoms: _113  and  _116
REMARK   45  A    between atoms: _116  and  _117
REMARK   46  A    between atoms: _123  and  _125
REMARK   47  A    between atoms: _125  and  _126
REMARK   48  A    between atoms: _125  and  _128
REMARK   49  A    between atoms: _128  and  _129
REMARK   50  A    between atoms: _135  and  _136
REMARK   51  A    between atoms: _141  and  _143
REMARK   52  A    between atoms: _143  and  _144
REMARK   53  A    between atoms: _143  and  _146
REMARK   54  A    between atoms: _146  and  _147
REMARK   55  A    between atoms: _149  and  _151
REMARK   56  A    between atoms: _151  and  _152
REMARK   57  A    between atoms: _151  and  _154
REMARK   58  A    between atoms: _154  and  _155
REMARK   59  A    between atoms: _160  and  _161
REMARK   60  A    between atoms: _163  and  _165
REMARK   61  A    between atoms: _165  and  _166
REMARK   62  A    between atoms: _165  and  _168
REMARK   63  A    between atoms: _168  and  _169
REMARK   64  A    between atoms: _169  and  _170
REMARK   65  A    between atoms: _170  and  _171
REMARK   66  A    between atoms: _180  and  _182
REMARK   67  A    between atoms: _182  and  _183
REMARK   68  A    between atoms: _182  and  _185
REMARK   69  A    between atoms: _185  and  _186
REMARK   70  A    between atoms: _191  and  _193
REMARK   71  A    between atoms: _193  and  _194
REMARK   72  A    between atoms: _197  and  _199
REMARK   73  A    between atoms: _199  and  _200
REMARK   74  A    between atoms: _203  and  _205
REMARK   75  A    between atoms: _205  and  _206
REMARK   76  A    between atoms: _209  and  _211
REMARK   77  A    between atoms: _211  and  _212
REMARK   78  A    between atoms: _211  and  _214
REMARK   79  A    between atoms: _214  and  _215
REMARK   80  A    between atoms: _215  and  _216
REMARK   81  A    between atoms: _216  and  _217
REMARK   82  A    between atoms: _226  and  _228
REMARK   83  A    between atoms: _228  and  _229
REMARK   84  A    between atoms: _228  and  _231
REMARK   85  A    between atoms: _231  and  _232
REMARK   86  A    between atoms: _232  and  _233
REMARK   87  A    between atoms: _233  and  _234
REMARK   88  A    between atoms: _243  and  _245
REMARK   89  A    between atoms: _245  and  _246
REMARK   90  A    between atoms: _245  and  _248
REMARK   91  A    between atoms: _248  and  _249
REMARK   92  A    between atoms: _252  and  _254
REMARK   93  A    between atoms: _254  and  _255
REMARK   94  A    between atoms: _257  and  _259
REMARK   95  A    between atoms: _259  and  _260
REMARK   96  A    between atoms: _259  and  _262
REMARK   97  A    between atoms: _262  and  _263
REMARK                            x       y       z     vdW  Elec       q    Type
REMARK                         _______ _______ _______ _____ _____    ______ ____
ROOT
ATOM      1  O   HOH     1       7.876 -10.965  29.956  0.00  0.00    +0.000 OA
ENDROOT
TORSDOF 0
REMARK  Name = ../refined-set-2016/3uu1/3uu1_pocket.pdb
REMARK  97 active torsions:
REMARK  status: ('A' for Active; 'I' for Inactive)
REMARK    1  A    between atoms: _1  and  _3
REMARK    2  A    between atoms: _3  and  _4
REMARK    3  A    between atoms: _3  and  _6
REMARK    4  A    between atoms: _6  and  _7
REMARK    5  A    between atoms: _7  and  _8
REMARK    6  A    between atoms: _10  and  _12
REMARK    7  A    between atoms: _12  and  _13
REMARK    8  A    between atoms: _12  and  _15
REMARK    9  A    between atoms: _15  and  _16
REMARK   10  A    between atoms: _16  and  _17
REMARK   11  A    between atoms: _19  and  _21
REMARK   12  A    between atoms: _21  and  _22
REMARK   13  A    between atoms: _21  and  _24
REMARK   14  A    between atoms: _24  and  _25
REMARK   15  A    between atoms: _30  and  _32
REMARK   16  A    between atoms: _32  and  _33
REMARK   17  A    between atoms: _35  and  _37
REMARK   18  A    between atoms: _37  and  _38
REMARK   19  A    between atoms: _37  and  _40
REMARK   20  A    between atoms: _40  and  _41
REMARK   21  A    between atoms: _46  and  _48
REMARK   22  A    between atoms: _48  and  _49
REMARK   23  A    between atoms: _48  and  _51
REMARK   24  A    between atoms: _51  and  _52
REMARK   25  A    between atoms: _52  and  _53
REMARK   26  A    between atoms: _53  and  _54
REMARK   27  A    between atoms: _63  and  _65
REMARK   28  A    between atoms: _65  and  _66
REMARK   29  A    between atoms: _69  and  _71
REMARK   30  A    between atoms: _71  and  _72
REMARK   31  A    between atoms: _71  and  _74
REMARK   32  A    between atoms: _74  and  _75
REMARK   33  A    between atoms: _81  and  _83
REMARK   34  A    between atoms: _83  and  _84
REMARK   35  A    between atoms: _88  and  _89
REMARK   36  A    between atoms: _94  and  _96
REMARK   37  A    between atoms: _96  and  _97
REMARK   38  A    between atoms: _96  and  _99
REMARK   39  A    between atoms: _99  and  _100
REMARK   40  A    between atoms: _100  and  _101
REMARK   41  A    between atoms: _101  and  _102
REMARK   42  A    between atoms: _111  and  _113
REMARK   43  A    between atoms: _113  and  _114
REMARK   44  A    between atoms: _113  and  _116
REMARK   45  A    between atoms: _116  and  _117
REMARK   46  A    between atoms: _123  and  _125
REMARK   47  A    between atoms: _125  and  _126
REMARK   48  A    between atoms: _125  and  _128
REMARK   49  A    between atoms: _128  and  _129
REMARK   50  A    between atoms: _135  and  _136
REMARK   51  A    between atoms: _141  and  _143
REMARK   52  A    between atoms: _143  and  _144
REMARK   53  A    between atoms: _143  and  _146
REMARK   54  A    between atoms: _146  and  _147
REMARK   55  A    between atoms: _149  and  _151
REMARK   56  A    between atoms: _151  and  _152
REMARK   57  A    between atoms: _151  and  _154
REMARK   58  A    between atoms: _154  and  _155
REMARK   59  A    between atoms: _160  and  _161
REMARK   60  A    between atoms: _163  and  _165
REMARK   61  A    between atoms: _165  and  _166
REMARK   62  A    between atoms: _165  and  _168
REMARK   63  A    between atoms: _168  and  _169
REMARK   64  A    between atoms: _169  and  _170
REMARK   65  A    between atoms: _170  and  _171
REMARK   66  A    between atoms: _180  and  _182
REMARK   67  A    between atoms: _182  and  _183
REMARK   68  A    between atoms: _182  and  _185
REMARK   69  A    between atoms: _185  and  _186
REMARK   70  A    between atoms: _191  and  _193
REMARK   71  A    between atoms: _193  and  _194
REMARK   72  A    between atoms: _197  and  _199
REMARK   73  A    between atoms: _199  and  _200
REMARK   74  A    between atoms: _203  and  _205
REMARK   75  A    between atoms: _205  and  _206
REMARK   76  A    between atoms: _209  and  _211
REMARK   77  A    between atoms: _211  and  _212
REMARK   78  A    between atoms: _211  and  _214
REMARK   79  A    between atoms: _214  and  _215
REMARK   80  A    between atoms: _215  and  _216
REMARK   81  A    between atoms: _216  and  _217
REMARK   82  A    between atoms: _226  and  _228
REMARK   83  A    between atoms: _228  and  _229
REMARK   84  A    between atoms: _228  and  _231
REMARK   85  A    between atoms: _231  and  _232
REMARK   86  A    between atoms: _232  and  _233
REMARK   87  A    between atoms: _233  and  _234
REMARK   88  A    between atoms: _243  and  _245
REMARK   89  A    between atoms: _245  and  _246
REMARK   90  A    between atoms: _245  and  _248
REMARK   91  A    between atoms: _248  and  _249
REMARK   92  A    between atoms: _252  and  _254
REMARK   93  A    between atoms: _254  and  _255
REMARK   94  A    between atoms: _257  and  _259
REMARK   95  A    between atoms: _259  and  _260
REMARK   96  A    between atoms: _259  and  _262
REMARK   97  A    between atoms: _262  and  _263
REMARK                            x       y       z     vdW  Elec       q    Type
REMARK                         _______ _______ _______ _____ _____    ______ ____
ROOT
ATOM      1  O   HOH     1       9.216   2.251  20.463  0.00  0.00    +0.000 OA
ENDROOT
TORSDOF 0
REMARK  Name = ../refined-set-2016/3uu1/3uu1_pocket.pdb
REMARK  97 active torsions:
REMARK  status: ('A' for Active; 'I' for Inactive)
REMARK    1  A    between atoms: _1  and  _3
REMARK    2  A    between atoms: _3  and  _4
REMARK    3  A    between atoms: _3  and  _6
REMARK    4  A    between atoms: _6  and  _7
REMARK    5  A    between atoms: _7  and  _8
REMARK    6  A    between atoms: _10  and  _12
REMARK    7  A    between atoms: _12  and  _13
REMARK    8  A    between atoms: _12  and  _15
REMARK    9  A    between atoms: _15  and  _16
REMARK   10  A    between atoms: _16  and  _17
REMARK   11  A    between atoms: _19  and  _21
REMARK   12  A    between atoms: _21  and  _22
REMARK   13  A    between atoms: _21  and  _24
REMARK   14  A    between atoms: _24  and  _25
REMARK   15  A    between atoms: _30  and  _32
REMARK   16  A    between atoms: _32  and  _33
REMARK   17  A    between atoms: _35  and  _37
REMARK   18  A    between atoms: _37  and  _38
REMARK   19  A    between atoms: _37  and  _40
REMARK   20  A    between atoms: _40  and  _41
REMARK   21  A    between atoms: _46  and  _48
REMARK   22  A    between atoms: _48  and  _49
REMARK   23  A    between atoms: _48  and  _51
REMARK   24  A    between atoms: _51  and  _52
REMARK   25  A    between atoms: _52  and  _53
REMARK   26  A    between atoms: _53  and  _54
REMARK   27  A    between atoms: _63  and  _65
REMARK   28  A    between atoms: _65  and  _66
REMARK   29  A    between atoms: _69  and  _71
REMARK   30  A    between atoms: _71  and  _72
REMARK   31  A    between atoms: _71  and  _74
REMARK   32  A    between atoms: _74  and  _75
REMARK   33  A    between atoms: _81  and  _83
REMARK   34  A    between atoms: _83  and  _84
REMARK   35  A    between atoms: _88  and  _89
REMARK   36  A    between atoms: _94  and  _96
REMARK   37  A    between atoms: _96  and  _97
REMARK   38  A    between atoms: _96  and  _99
REMARK   39  A    between atoms: _99  and  _100
REMARK   40  A    between atoms: _100  and  _101
REMARK   41  A    between atoms: _101  and  _102
REMARK   42  A    between atoms: _111  and  _113
REMARK   43  A    between atoms: _113  and  _114
REMARK   44  A    between atoms: _113  and  _116
REMARK   45  A    between atoms: _116  and  _117
REMARK   46  A    between atoms: _123  and  _125
REMARK   47  A    between atoms: _125  and  _126
REMARK   48  A    between atoms: _125  and  _128
REMARK   49  A    between atoms: _128  and  _129
REMARK   50  A    between atoms: _135  and  _136
REMARK   51  A    between atoms: _141  and  _143
REMARK   52  A    between atoms: _143  and  _144
REMARK   53  A    between atoms: _143  and  _146
REMARK   54  A    between atoms: _146  and  _147
REMARK   55  A    between atoms: _149  and  _151
REMARK   56  A    between atoms: _151  and  _152
REMARK   57  A    between atoms: _151  and  _154
REMARK   58  A    between atoms: _154  and  _155
REMARK   59  A    between atoms: _160  and  _161
REMARK   60  A    between atoms: _163  and  _165
REMARK   61  A    between atoms: _165  and  _166
REMARK   62  A    between atoms: _165  and  _168
REMARK   63  A    between atoms: _168  and  _169
REMARK   64  A    between atoms: _169  and  _170
REMARK   65  A    between atoms: _170  and  _171
REMARK   66  A    between atoms: _180  and  _182
REMARK   67  A    between atoms: _182  and  _183
REMARK   68  A    between atoms: _182  and  _185
REMARK   69  A    between atoms: _185  and  _186
REMARK   70  A    between atoms: _191  and  _193
REMARK   71  A    between atoms: _193  and  _194
REMARK   72  A    between atoms: _197  and  _199
REMARK   73  A    between atoms: _199  and  _200
REMARK   74  A    between atoms: _203  and  _205
REMARK   75  A    between atoms: _205  and  _206
REMARK   76  A    between atoms: _209  and  _211
REMARK   77  A    between atoms: _211  and  _212
REMARK   78  A    between atoms: _211  and  _214
REMARK   79  A    between atoms: _214  and  _215
REMARK   80  A    between atoms: _215  and  _216
REMARK   81  A    between atoms: _216  and  _217
REMARK   82  A    between atoms: _226  and  _228
REMARK   83  A    between atoms: _228  and  _229
REMARK   84  A    between atoms: _228  and  _231
REMARK   85  A    between atoms: _231  and  _232
REMARK   86  A    between atoms: _232  and  _233
REMARK   87  A    between atoms: _233  and  _234
REMARK   88  A    between atoms: _243  and  _245
REMARK   89  A    between atoms: _245  and  _246
REMARK   90  A    between atoms: _245  and  _248
REMARK   91  A    between atoms: _248  and  _249
REMARK   92  A    between atoms: _252  and  _254
REMARK   93  A    between atoms: _254  and  _255
REMARK   94  A    between atoms: _257  and  _259
REMARK   95  A    between atoms: _259  and  _260
REMARK   96  A    between atoms: _259  and  _262
REMARK   97  A    between atoms: _262  and  _263
REMARK                            x       y       z     vdW  Elec       q    Type
REMARK                         _______ _______ _______ _____ _____    ______ ____
ROOT
ATOM      1  O   HOH     1       2.402  -6.726  26.167  0.00  0.00    +0.000 OA
ENDROOT
TORSDOF 0
REMARK  Name = ../refined-set-2016/3uu1/3uu1_pocket.pdb
REMARK  97 active torsions:
REMARK  status: ('A' for Active; 'I' for Inactive)
REMARK    1  A    between atoms: _1  and  _3
REMARK    2  A    between atoms: _3  and  _4
REMARK    3  A    between atoms: _3  and  _6
REMARK    4  A    between atoms: _6  and  _7
REMARK    5  A    between atoms: _7  and  _8
REMARK    6  A    between atoms: _10  and  _12
REMARK    7  A    between atoms: _12  and  _13
REMARK    8  A    between atoms: _12  and  _15
REMARK    9  A    between atoms: _15  and  _16
REMARK   10  A    between atoms: _16  and  _17
REMARK   11  A    between atoms: _19  and  _21
REMARK   12  A    between atoms: _21  and  _22
REMARK   13  A    between atoms: _21  and  _24
REMARK   14  A    between atoms: _24  and  _25
REMARK   15  A    between atoms: _30  and  _32
REMARK   16  A    between atoms: _32  and  _33
REMARK   17  A    between atoms: _35  and  _37
REMARK   18  A    between atoms: _37  and  _38
REMARK   19  A    between atoms: _37  and  _40
REMARK   20  A    between atoms: _40  and  _41
REMARK   21  A    between atoms: _46  and  _48
REMARK   22  A    between atoms: _48  and  _49
REMARK   23  A    between atoms: _48  and  _51
REMARK   24  A    between atoms: _51  and  _52
REMARK   25  A    between atoms: _52  and  _53
REMARK   26  A    between atoms: _53  and  _54
REMARK   27  A    between atoms: _63  and  _65
REMARK   28  A    between atoms: _65  and  _66
REMARK   29  A    between atoms: _69  and  _71
REMARK   30  A    between atoms: _71  and  _72
REMARK   31  A    between atoms: _71  and  _74
REMARK   32  A    between atoms: _74  and  _75
REMARK   33  A    between atoms: _81  and  _83
REMARK   34  A    between atoms: _83  and  _84
REMARK   35  A    between atoms: _88  and  _89
REMARK   36  A    between atoms: _94  and  _96
REMARK   37  A    between atoms: _96  and  _97
REMARK   38  A    between atoms: _96  and  _99
REMARK   39  A    between atoms: _99  and  _100
REMARK   40  A    between atoms: _100  and  _101
REMARK   41  A    between atoms: _101  and  _102
REMARK   42  A    between atoms: _111  and  _113
REMARK   43  A    between atoms: _113  and  _114
REMARK   44  A    between atoms: _113  and  _116
REMARK   45  A    between atoms: _116  and  _117
REMARK   46  A    between atoms: _123  and  _125
REMARK   47  A    between atoms: _125  and  _126
REMARK   48  A    between atoms: _125  and  _128
REMARK   49  A    between atoms: _128  and  _129
REMARK   50  A    between atoms: _135  and  _136
REMARK   51  A    between atoms: _141  and  _143
REMARK   52  A    between atoms: _143  and  _144
REMARK   53  A    between atoms: _143  and  _146
REMARK   54  A    between atoms: _146  and  _147
REMARK   55  A    between atoms: _149  and  _151
REMARK   56  A    between atoms: _151  and  _152
REMARK   57  A    between atoms: _151  and  _154
REMARK   58  A    between atoms: _154  and  _155
REMARK   59  A    between atoms: _160  and  _161
REMARK   60  A    between atoms: _163  and  _165
REMARK   61  A    between atoms: _165  and  _166
REMARK   62  A    between atoms: _165  and  _168
REMARK   63  A    between atoms: _168  and  _169
REMARK   64  A    between atoms: _169  and  _170
REMARK   65  A    between atoms: _170  and  _171
REMARK   66  A    between atoms: _180  and  _182
REMARK   67  A    between atoms: _182  and  _183
REMARK   68  A    between atoms: _182  and  _185
REMARK   69  A    between atoms: _185  and  _186
REMARK   70  A    between atoms: _191  and  _193
REMARK   71  A    between atoms: _193  and  _194
REMARK   72  A    between atoms: _197  and  _199
REMARK   73  A    between atoms: _199  and  _200
REMARK   74  A    between atoms: _203  and  _205
REMARK   75  A    between atoms: _205  and  _206
REMARK   76  A    between atoms: _209  and  _211
REMARK   77  A    between atoms: _211  and  _212
REMARK   78  A    between atoms: _211  and  _214
REMARK   79  A    between atoms: _214  and  _215
REMARK   80  A    between atoms: _215  and  _216
REMARK   81  A    between atoms: _216  and  _217
REMARK   82  A    between atoms: _226  and  _228
REMARK   83  A    between atoms: _228  and  _229
REMARK   84  A    between atoms: _228  and  _231
REMARK   85  A    between atoms: _231  and  _232
REMARK   86  A    between atoms: _232  and  _233
REMARK   87  A    between atoms: _233  and  _234
REMARK   88  A    between atoms: _243  and  _245
REMARK   89  A    between atoms: _245  and  _246
REMARK   90  A    between atoms: _245  and  _248
REMARK   91  A    between atoms: _248  and  _249
REMARK   92  A    between atoms: _252  and  _254
REMARK   93  A    between atoms: _254  and  _255
REMARK   94  A    between atoms: _257  and  _259
REMARK   95  A    between atoms: _259  and  _260
REMARK   96  A    between atoms: _259  and  _262
REMARK   97  A    between atoms: _262  and  _263
REMARK                            x       y       z     vdW  Elec       q    Type
REMARK                         _______ _______ _______ _____ _____    ______ ____
ROOT
ATOM      1  O   HOH     1       4.549 -10.798  35.031  0.00  0.00    +0.000 OA
ENDROOT
TORSDOF 0
REMARK  Name = ../refined-set-2016/3uu1/3uu1_pocket.pdb
REMARK  97 active torsions:
REMARK  status: ('A' for Active; 'I' for Inactive)
REMARK    1  A    between atoms: _1  and  _3
REMARK    2  A    between atoms: _3  and  _4
REMARK    3  A    between atoms: _3  and  _6
REMARK    4  A    between atoms: _6  and  _7
REMARK    5  A    between atoms: _7  and  _8
REMARK    6  A    between atoms: _10  and  _12
REMARK    7  A    between atoms: _12  and  _13
REMARK    8  A    between atoms: _12  and  _15
REMARK    9  A    between atoms: _15  and  _16
REMARK   10  A    between atoms: _16  and  _17
REMARK   11  A    between atoms: _19  and  _21
REMARK   12  A    between atoms: _21  and  _22
REMARK   13  A    between atoms: _21  and  _24
REMARK   14  A    between atoms: _24  and  _25
REMARK   15  A    between atoms: _30  and  _32
REMARK   16  A    between atoms: _32  and  _33
REMARK   17  A    between atoms: _35  and  _37
REMARK   18  A    between atoms: _37  and  _38
REMARK   19  A    between atoms: _37  and  _40
REMARK   20  A    between atoms: _40  and  _41
REMARK   21  A    between atoms: _46  and  _48
REMARK   22  A    between atoms: _48  and  _49
REMARK   23  A    between atoms: _48  and  _51
REMARK   24  A    between atoms: _51  and  _52
REMARK   25  A    between atoms: _52  and  _53
REMARK   26  A    between atoms: _53  and  _54
REMARK   27  A    between atoms: _63  and  _65
REMARK   28  A    between atoms: _65  and  _66
REMARK   29  A    between atoms: _69  and  _71
REMARK   30  A    between atoms: _71  and  _72
REMARK   31  A    between atoms: _71  and  _74
REMARK   32  A    between atoms: _74  and  _75
REMARK   33  A    between atoms: _81  and  _83
REMARK   34  A    between atoms: _83  and  _84
REMARK   35  A    between atoms: _88  and  _89
REMARK   36  A    between atoms: _94  and  _96
REMARK   37  A    between atoms: _96  and  _97
REMARK   38  A    between atoms: _96  and  _99
REMARK   39  A    between atoms: _99  and  _100
REMARK   40  A    between atoms: _100  and  _101
REMARK   41  A    between atoms: _101  and  _102
REMARK   42  A    between atoms: _111  and  _113
REMARK   43  A    between atoms: _113  and  _114
REMARK   44  A    between atoms: _113  and  _116
REMARK   45  A    between atoms: _116  and  _117
REMARK   46  A    between atoms: _123  and  _125
REMARK   47  A    between atoms: _125  and  _126
REMARK   48  A    between atoms: _125  and  _128
REMARK   49  A    between atoms: _128  and  _129
REMARK   50  A    between atoms: _135  and  _136
REMARK   51  A    between atoms: _141  and  _143
REMARK   52  A    between atoms: _143  and  _144
REMARK   53  A    between atoms: _143  and  _146
REMARK   54  A    between atoms: _146  and  _147
REMARK   55  A    between atoms: _149  and  _151
REMARK   56  A    between atoms: _151  and  _152
REMARK   57  A    between atoms: _151  and  _154
REMARK   58  A    between atoms: _154  and  _155
REMARK   59  A    between atoms: _160  and  _161
REMARK   60  A    between atoms: _163  and  _165
REMARK   61  A    between atoms: _165  and  _166
REMARK   62  A    between atoms: _165  and  _168
REMARK   63  A    between atoms: _168  and  _169
REMARK   64  A    between atoms: _169  and  _170
REMARK   65  A    between atoms: _170  and  _171
REMARK   66  A    between atoms: _180  and  _182
REMARK   67  A    between atoms: _182  and  _183
REMARK   68  A    between atoms: _182  and  _185
REMARK   69  A    between atoms: _185  and  _186
REMARK   70  A    between atoms: _191  and  _193
REMARK   71  A    between atoms: _193  and  _194
REMARK   72  A    between atoms: _197  and  _199
REMARK   73  A    between atoms: _199  and  _200
REMARK   74  A    between atoms: _203  and  _205
REMARK   75  A    between atoms: _205  and  _206
REMARK   76  A    between atoms: _209  and  _211
REMARK   77  A    between atoms: _211  and  _212
REMARK   78  A    between atoms: _211  and  _214
REMARK   79  A    between atoms: _214  and  _215
REMARK   80  A    between atoms: _215  and  _216
REMARK   81  A    between atoms: _216  and  _217
REMARK   82  A    between atoms: _226  and  _228
REMARK   83  A    between atoms: _228  and  _229
REMARK   84  A    between atoms: _228  and  _231
REMARK   85  A    between atoms: _231  and  _232
REMARK   86  A    between atoms: _232  and  _233
REMARK   87  A    between atoms: _233  and  _234
REMARK   88  A    between atoms: _243  and  _245
REMARK   89  A    between atoms: _245  and  _246
REMARK   90  A    between atoms: _245  and  _248
REMARK   91  A    between atoms: _248  and  _249
REMARK   92  A    between atoms: _252  and  _254
REMARK   93  A    between atoms: _254  and  _255
REMARK   94  A    between atoms: _257  and  _259
REMARK   95  A    between atoms: _259  and  _260
REMARK   96  A    between atoms: _259  and  _262
REMARK   97  A    between atoms: _262  and  _263
REMARK                            x       y       z     vdW  Elec       q    Type
REMARK                         _______ _______ _______ _____ _____    ______ ____
ROOT
ATOM      1  O   HOH     1       8.009  -2.472  21.508  0.00  0.00    +0.000 OA
ENDROOT
TORSDOF 0
REMARK  Name = ../refined-set-2016/3uu1/3uu1_pocket.pdb
REMARK  97 active torsions:
REMARK  status: ('A' for Active; 'I' for Inactive)
REMARK    1  A    between atoms: _1  and  _3
REMARK    2  A    between atoms: _3  and  _4
REMARK    3  A    between atoms: _3  and  _6
REMARK    4  A    between atoms: _6  and  _7
REMARK    5  A    between atoms: _7  and  _8
REMARK    6  A    between atoms: _10  and  _12
REMARK    7  A    between atoms: _12  and  _13
REMARK    8  A    between atoms: _12  and  _15
REMARK    9  A    between atoms: _15  and  _16
REMARK   10  A    between atoms: _16  and  _17
REMARK   11  A    between atoms: _19  and  _21
REMARK   12  A    between atoms: _21  and  _22
REMARK   13  A    between atoms: _21  and  _24
REMARK   14  A    between atoms: _24  and  _25
REMARK   15  A    between atoms: _30  and  _32
REMARK   16  A    between atoms: _32  and  _33
REMARK   17  A    between atoms: _35  and  _37
REMARK   18  A    between atoms: _37  and  _38
REMARK   19  A    between atoms: _37  and  _40
REMARK   20  A    between atoms: _40  and  _41
REMARK   21  A    between atoms: _46  and  _48
REMARK   22  A    between atoms: _48  and  _49
REMARK   23  A    between atoms: _48  and  _51
REMARK   24  A    between atoms: _51  and  _52
REMARK   25  A    between atoms: _52  and  _53
REMARK   26  A    between atoms: _53  and  _54
REMARK   27  A    between atoms: _63  and  _65
REMARK   28  A    between atoms: _65  and  _66
REMARK   29  A    between atoms: _69  and  _71
REMARK   30  A    between atoms: _71  and  _72
REMARK   31  A    between atoms: _71  and  _74
REMARK   32  A    between atoms: _74  and  _75
REMARK   33  A    between atoms: _81  and  _83
REMARK   34  A    between atoms: _83  and  _84
REMARK   35  A    between atoms: _88  and  _89
REMARK   36  A    between atoms: _94  and  _96
REMARK   37  A    between atoms: _96  and  _97
REMARK   38  A    between atoms: _96  and  _99
REMARK   39  A    between atoms: _99  and  _100
REMARK   40  A    between atoms: _100  and  _101
REMARK   41  A    between atoms: _101  and  _102
REMARK   42  A    between atoms: _111  and  _113
REMARK   43  A    between atoms: _113  and  _114
REMARK   44  A    between atoms: _113  and  _116
REMARK   45  A    between atoms: _116  and  _117
REMARK   46  A    between atoms: _123  and  _125
REMARK   47  A    between atoms: _125  and  _126
REMARK   48  A    between atoms: _125  and  _128
REMARK   49  A    between atoms: _128  and  _129
REMARK   50  A    between atoms: _135  and  _136
REMARK   51  A    between atoms: _141  and  _143
REMARK   52  A    between atoms: _143  and  _144
REMARK   53  A    between atoms: _143  and  _146
REMARK   54  A    between atoms: _146  and  _147
REMARK   55  A    between atoms: _149  and  _151
REMARK   56  A    between atoms: _151  and  _152
REMARK   57  A    between atoms: _151  and  _154
REMARK   58  A    between atoms: _154  and  _155
REMARK   59  A    between atoms: _160  and  _161
REMARK   60  A    between atoms: _163  and  _165
REMARK   61  A    between atoms: _165  and  _166
REMARK   62  A    between atoms: _165  and  _168
REMARK   63  A    between atoms: _168  and  _169
REMARK   64  A    between atoms: _169  and  _170
REMARK   65  A    between atoms: _170  and  _171
REMARK   66  A    between atoms: _180  and  _182
REMARK   67  A    between atoms: _182  and  _183
REMARK   68  A    between atoms: _182  and  _185
REMARK   69  A    between atoms: _185  and  _186
REMARK   70  A    between atoms: _191  and  _193
REMARK   71  A    between atoms: _193  and  _194
REMARK   72  A    between atoms: _197  and  _199
REMARK   73  A    between atoms: _199  and  _200
REMARK   74  A    between atoms: _203  and  _205
REMARK   75  A    between atoms: _205  and  _206
REMARK   76  A    between atoms: _209  and  _211
REMARK   77  A    between atoms: _211  and  _212
REMARK   78  A    between atoms: _211  and  _214
REMARK   79  A    between atoms: _214  and  _215
REMARK   80  A    between atoms: _215  and  _216
REMARK   81  A    between atoms: _216  and  _217
REMARK   82  A    between atoms: _226  and  _228
REMARK   83  A    between atoms: _228  and  _229
REMARK   84  A    between atoms: _228  and  _231
REMARK   85  A    between atoms: _231  and  _232
REMARK   86  A    between atoms: _232  and  _233
REMARK   87  A    between atoms: _233  and  _234
REMARK   88  A    between atoms: _243  and  _245
REMARK   89  A    between atoms: _245  and  _246
REMARK   90  A    between atoms: _245  and  _248
REMARK   91  A    between atoms: _248  and  _249
REMARK   92  A    between atoms: _252  and  _254
REMARK   93  A    between atoms: _254  and  _255
REMARK   94  A    between atoms: _257  and  _259
REMARK   95  A    between atoms: _259  and  _260
REMARK   96  A    between atoms: _259  and  _262
REMARK   97  A    between atoms: _262  and  _263
REMARK                            x       y       z     vdW  Elec       q    Type
REMARK                         _______ _______ _______ _____ _____    ______ ____
ROOT
ATOM      1  O   HOH     1      -0.270 -10.635  25.265  0.00  0.00    +0.000 OA
ENDROOT
TORSDOF 0
REMARK  Name = ../refined-set-2016/3uu1/3uu1_pocket.pdb
REMARK  97 active torsions:
REMARK  status: ('A' for Active; 'I' for Inactive)
REMARK    1  A    between atoms: _1  and  _3
REMARK    2  A    between atoms: _3  and  _4
REMARK    3  A    between atoms: _3  and  _6
REMARK    4  A    between atoms: _6  and  _7
REMARK    5  A    between atoms: _7  and  _8
REMARK    6  A    between atoms: _10  and  _12
REMARK    7  A    between atoms: _12  and  _13
REMARK    8  A    between atoms: _12  and  _15
REMARK    9  A    between atoms: _15  and  _16
REMARK   10  A    between atoms: _16  and  _17
REMARK   11  A    between atoms: _19  and  _21
REMARK   12  A    between atoms: _21  and  _22
REMARK   13  A    between atoms: _21  and  _24
REMARK   14  A    between atoms: _24  and  _25
REMARK   15  A    between atoms: _30  and  _32
REMARK   16  A    between atoms: _32  and  _33
REMARK   17  A    between atoms: _35  and  _37
REMARK   18  A    between atoms: _37  and  _38
REMARK   19  A    between atoms: _37  and  _40
REMARK   20  A    between atoms: _40  and  _41
REMARK   21  A    between atoms: _46  and  _48
REMARK   22  A    between atoms: _48  and  _49
REMARK   23  A    between atoms: _48  and  _51
REMARK   24  A    between atoms: _51  and  _52
REMARK   25  A    between atoms: _52  and  _53
REMARK   26  A    between atoms: _53  and  _54
REMARK   27  A    between atoms: _63  and  _65
REMARK   28  A    between atoms: _65  and  _66
REMARK   29  A    between atoms: _69  and  _71
REMARK   30  A    between atoms: _71  and  _72
REMARK   31  A    between atoms: _71  and  _74
REMARK   32  A    between atoms: _74  and  _75
REMARK   33  A    between atoms: _81  and  _83
REMARK   34  A    between atoms: _83  and  _84
REMARK   35  A    between atoms: _88  and  _89
REMARK   36  A    between atoms: _94  and  _96
REMARK   37  A    between atoms: _96  and  _97
REMARK   38  A    between atoms: _96  and  _99
REMARK   39  A    between atoms: _99  and  _100
REMARK   40  A    between atoms: _100  and  _101
REMARK   41  A    between atoms: _101  and  _102
REMARK   42  A    between atoms: _111  and  _113
REMARK   43  A    between atoms: _113  and  _114
REMARK   44  A    between atoms: _113  and  _116
REMARK   45  A    between atoms: _116  and  _117
REMARK   46  A    between atoms: _123  and  _125
REMARK   47  A    between atoms: _125  and  _126
REMARK   48  A    between atoms: _125  and  _128
REMARK   49  A    between atoms: _128  and  _129
REMARK   50  A    between atoms: _135  and  _136
REMARK   51  A    between atoms: _141  and  _143
REMARK   52  A    between atoms: _143  and  _144
REMARK   53  A    between atoms: _143  and  _146
REMARK   54  A    between atoms: _146  and  _147
REMARK   55  A    between atoms: _149  and  _151
REMARK   56  A    between atoms: _151  and  _152
REMARK   57  A    between atoms: _151  and  _154
REMARK   58  A    between atoms: _154  and  _155
REMARK   59  A    between atoms: _160  and  _161
REMARK   60  A    between atoms: _163  and  _165
REMARK   61  A    between atoms: _165  and  _166
REMARK   62  A    between atoms: _165  and  _168
REMARK   63  A    between atoms: _168  and  _169
REMARK   64  A    between atoms: _169  and  _170
REMARK   65  A    between atoms: _170  and  _171
REMARK   66  A    between atoms: _180  and  _182
REMARK   67  A    between atoms: _182  and  _183
REMARK   68  A    between atoms: _182  and  _185
REMARK   69  A    between atoms: _185  and  _186
REMARK   70  A    between atoms: _191  and  _193
REMARK   71  A    between atoms: _193  and  _194
REMARK   72  A    between atoms: _197  and  _199
REMARK   73  A    between atoms: _199  and  _200
REMARK   74  A    between atoms: _203  and  _205
REMARK   75  A    between atoms: _205  and  _206
REMARK   76  A    between atoms: _209  and  _211
REMARK   77  A    between atoms: _211  and  _212
REMARK   78  A    between atoms: _211  and  _214
REMARK   79  A    between atoms: _214  and  _215
REMARK   80  A    between atoms: _215  and  _216
REMARK   81  A    between atoms: _216  and  _217
REMARK   82  A    between atoms: _226  and  _228
REMARK   83  A    between atoms: _228  and  _229
REMARK   84  A    between atoms: _228  and  _231
REMARK   85  A    between atoms: _231  and  _232
REMARK   86  A    between atoms: _232  and  _233
REMARK   87  A    between atoms: _233  and  _234
REMARK   88  A    between atoms: _243  and  _245
REMARK   89  A    between atoms: _245  and  _246
REMARK   90  A    between atoms: _245  and  _248
REMARK   91  A    between atoms: _248  and  _249
REMARK   92  A    between atoms: _252  and  _254
REMARK   93  A    between atoms: _254  and  _255
REMARK   94  A    between atoms: _257  and  _259
REMARK   95  A    between atoms: _259  and  _260
REMARK   96  A    between atoms: _259  and  _262
REMARK   97  A    between atoms: _262  and  _263
REMARK                            x       y       z     vdW  Elec       q    Type
REMARK                         _______ _______ _______ _____ _____    ______ ____
ROOT
ATOM      1  O   HOH     1      10.342  -3.738  21.406  0.00  0.00    +0.000 OA
ENDROOT
TORSDOF 0
REMARK  Name = ../refined-set-2016/3uu1/3uu1_pocket.pdb
REMARK  97 active torsions:
REMARK  status: ('A' for Active; 'I' for Inactive)
REMARK    1  A    between atoms: _1  and  _3
REMARK    2  A    between atoms: _3  and  _4
REMARK    3  A    between atoms: _3  and  _6
REMARK    4  A    between atoms: _6  and  _7
REMARK    5  A    between atoms: _7  and  _8
REMARK    6  A    between atoms: _10  and  _12
REMARK    7  A    between atoms: _12  and  _13
REMARK    8  A    between atoms: _12  and  _15
REMARK    9  A    between atoms: _15  and  _16
REMARK   10  A    between atoms: _16  and  _17
REMARK   11  A    between atoms: _19  and  _21
REMARK   12  A    between atoms: _21  and  _22
REMARK   13  A    between atoms: _21  and  _24
REMARK   14  A    between atoms: _24  and  _25
REMARK   15  A    between atoms: _30  and  _32
REMARK   16  A    between atoms: _32  and  _33
REMARK   17  A    between atoms: _35  and  _37
REMARK   18  A    between atoms: _37  and  _38
REMARK   19  A    between atoms: _37  and  _40
REMARK   20  A    between atoms: _40  and  _41
REMARK   21  A    between atoms: _46  and  _48
REMARK   22  A    between atoms: _48  and  _49
REMARK   23  A    between atoms: _48  and  _51
REMARK   24  A    between atoms: _51  and  _52
REMARK   25  A    between atoms: _52  and  _53
REMARK   26  A    between atoms: _53  and  _54
REMARK   27  A    between atoms: _63  and  _65
REMARK   28  A    between atoms: _65  and  _66
REMARK   29  A    between atoms: _69  and  _71
REMARK   30  A    between atoms: _71  and  _72
REMARK   31  A    between atoms: _71  and  _74
REMARK   32  A    between atoms: _74  and  _75
REMARK   33  A    between atoms: _81  and  _83
REMARK   34  A    between atoms: _83  and  _84
REMARK   35  A    between atoms: _88  and  _89
REMARK   36  A    between atoms: _94  and  _96
REMARK   37  A    between atoms: _96  and  _97
REMARK   38  A    between atoms: _96  and  _99
REMARK   39  A    between atoms: _99  and  _100
REMARK   40  A    between atoms: _100  and  _101
REMARK   41  A    between atoms: _101  and  _102
REMARK   42  A    between atoms: _111  and  _113
REMARK   43  A    between atoms: _113  and  _114
REMARK   44  A    between atoms: _113  and  _116
REMARK   45  A    between atoms: _116  and  _117
REMARK   46  A    between atoms: _123  and  _125
REMARK   47  A    between atoms: _125  and  _126
REMARK   48  A    between atoms: _125  and  _128
REMARK   49  A    between atoms: _128  and  _129
REMARK   50  A    between atoms: _135  and  _136
REMARK   51  A    between atoms: _141  and  _143
REMARK   52  A    between atoms: _143  and  _144
REMARK   53  A    between atoms: _143  and  _146
REMARK   54  A    between atoms: _146  and  _147
REMARK   55  A    between atoms: _149  and  _151
REMARK   56  A    between atoms: _151  and  _152
REMARK   57  A    between atoms: _151  and  _154
REMARK   58  A    between atoms: _154  and  _155
REMARK   59  A    between atoms: _160  and  _161
REMARK   60  A    between atoms: _163  and  _165
REMARK   61  A    between atoms: _165  and  _166
REMARK   62  A    between atoms: _165  and  _168
REMARK   63  A    between atoms: _168  and  _169
REMARK   64  A    between atoms: _169  and  _170
REMARK   65  A    between atoms: _170  and  _171
REMARK   66  A    between atoms: _180  and  _182
REMARK   67  A    between atoms: _182  and  _183
REMARK   68  A    between atoms: _182  and  _185
REMARK   69  A    between atoms: _185  and  _186
REMARK   70  A    between atoms: _191  and  _193
REMARK   71  A    between atoms: _193  and  _194
REMARK   72  A    between atoms: _197  and  _199
REMARK   73  A    between atoms: _199  and  _200
REMARK   74  A    between atoms: _203  and  _205
REMARK   75  A    between atoms: _205  and  _206
REMARK   76  A    between atoms: _209  and  _211
REMARK   77  A    between atoms: _211  and  _212
REMARK   78  A    between atoms: _211  and  _214
REMARK   79  A    between atoms: _214  and  _215
REMARK   80  A    between atoms: _215  and  _216
REMARK   81  A    between atoms: _216  and  _217
REMARK   82  A    between atoms: _226  and  _228
REMARK   83  A    between atoms: _228  and  _229
REMARK   84  A    between atoms: _228  and  _231
REMARK   85  A    between atoms: _231  and  _232
REMARK   86  A    between atoms: _232  and  _233
REMARK   87  A    between atoms: _233  and  _234
REMARK   88  A    between atoms: _243  and  _245
REMARK   89  A    between atoms: _245  and  _246
REMARK   90  A    between atoms: _245  and  _248
REMARK   91  A    between atoms: _248  and  _249
REMARK   92  A    between atoms: _252  and  _254
REMARK   93  A    between atoms: _254  and  _255
REMARK   94  A    between atoms: _257  and  _259
REMARK   95  A    between atoms: _259  and  _260
REMARK   96  A    between atoms: _259  and  _262
REMARK   97  A    between atoms: _262  and  _263
REMARK                            x       y       z     vdW  Elec       q    Type
REMARK                         _______ _______ _______ _____ _____    ______ ____
ROOT
ATOM      1  O   HOH     1       8.001  -5.401  35.433  0.00  0.00    +0.000 OA
ENDROOT
TORSDOF 0
REMARK  Name = ../refined-set-2016/3uu1/3uu1_pocket.pdb
REMARK  97 active torsions:
REMARK  status: ('A' for Active; 'I' for Inactive)
REMARK    1  A    between atoms: _1  and  _3
REMARK    2  A    between atoms: _3  and  _4
REMARK    3  A    between atoms: _3  and  _6
REMARK    4  A    between atoms: _6  and  _7
REMARK    5  A    between atoms: _7  and  _8
REMARK    6  A    between atoms: _10  and  _12
REMARK    7  A    between atoms: _12  and  _13
REMARK    8  A    between atoms: _12  and  _15
REMARK    9  A    between atoms: _15  and  _16
REMARK   10  A    between atoms: _16  and  _17
REMARK   11  A    between atoms: _19  and  _21
REMARK   12  A    between atoms: _21  and  _22
REMARK   13  A    between atoms: _21  and  _24
REMARK   14  A    between atoms: _24  and  _25
REMARK   15  A    between atoms: _30  and  _32
REMARK   16  A    between atoms: _32  and  _33
REMARK   17  A    between atoms: _35  and  _37
REMARK   18  A    between atoms: _37  and  _38
REMARK   19  A    between atoms: _37  and  _40
REMARK   20  A    between atoms: _40  and  _41
REMARK   21  A    between atoms: _46  and  _48
REMARK   22  A    between atoms: _48  and  _49
REMARK   23  A    between atoms: _48  and  _51
REMARK   24  A    between atoms: _51  and  _52
REMARK   25  A    between atoms: _52  and  _53
REMARK   26  A    between atoms: _53  and  _54
REMARK   27  A    between atoms: _63  and  _65
REMARK   28  A    between atoms: _65  and  _66
REMARK   29  A    between atoms: _69  and  _71
REMARK   30  A    between atoms: _71  and  _72
REMARK   31  A    between atoms: _71  and  _74
REMARK   32  A    between atoms: _74  and  _75
REMARK   33  A    between atoms: _81  and  _83
REMARK   34  A    between atoms: _83  and  _84
REMARK   35  A    between atoms: _88  and  _89
REMARK   36  A    between atoms: _94  and  _96
REMARK   37  A    between atoms: _96  and  _97
REMARK   38  A    between atoms: _96  and  _99
REMARK   39  A    between atoms: _99  and  _100
REMARK   40  A    between atoms: _100  and  _101
REMARK   41  A    between atoms: _101  and  _102
REMARK   42  A    between atoms: _111  and  _113
REMARK   43  A    between atoms: _113  and  _114
REMARK   44  A    between atoms: _113  and  _116
REMARK   45  A    between atoms: _116  and  _117
REMARK   46  A    between atoms: _123  and  _125
REMARK   47  A    between atoms: _125  and  _126
REMARK   48  A    between atoms: _125  and  _128
REMARK   49  A    between atoms: _128  and  _129
REMARK   50  A    between atoms: _135  and  _136
REMARK   51  A    between atoms: _141  and  _143
REMARK   52  A    between atoms: _143  and  _144
REMARK   53  A    between atoms: _143  and  _146
REMARK   54  A    between atoms: _146  and  _147
REMARK   55  A    between atoms: _149  and  _151
REMARK   56  A    between atoms: _151  and  _152
REMARK   57  A    between atoms: _151  and  _154
REMARK   58  A    between atoms: _154  and  _155
REMARK   59  A    between atoms: _160  and  _161
REMARK   60  A    between atoms: _163  and  _165
REMARK   61  A    between atoms: _165  and  _166
REMARK   62  A    between atoms: _165  and  _168
REMARK   63  A    between atoms: _168  and  _169
REMARK   64  A    between atoms: _169  and  _170
REMARK   65  A    between atoms: _170  and  _171
REMARK   66  A    between atoms: _180  and  _182
REMARK   67  A    between atoms: _182  and  _183
REMARK   68  A    between atoms: _182  and  _185
REMARK   69  A    between atoms: _185  and  _186
REMARK   70  A    between atoms: _191  and  _193
REMARK   71  A    between atoms: _193  and  _194
REMARK   72  A    between atoms: _197  and  _199
REMARK   73  A    between atoms: _199  and  _200
REMARK   74  A    between atoms: _203  and  _205
REMARK   75  A    between atoms: _205  and  _206
REMARK   76  A    between atoms: _209  and  _211
REMARK   77  A    between atoms: _211  and  _212
REMARK   78  A    between atoms: _211  and  _214
REMARK   79  A    between atoms: _214  and  _215
REMARK   80  A    between atoms: _215  and  _216
REMARK   81  A    between atoms: _216  and  _217
REMARK   82  A    between atoms: _226  and  _228
REMARK   83  A    between atoms: _228  and  _229
REMARK   84  A    between atoms: _228  and  _231
REMARK   85  A    between atoms: _231  and  _232
REMARK   86  A    between atoms: _232  and  _233
REMARK   87  A    between atoms: _233  and  _234
REMARK   88  A    between atoms: _243  and  _245
REMARK   89  A    between atoms: _245  and  _246
REMARK   90  A    between atoms: _245  and  _248
REMARK   91  A    between atoms: _248  and  _249
REMARK   92  A    between atoms: _252  and  _254
REMARK   93  A    between atoms: _254  and  _255
REMARK   94  A    between atoms: _257  and  _259
REMARK   95  A    between atoms: _259  and  _260
REMARK   96  A    between atoms: _259  and  _262
REMARK   97  A    between atoms: _262  and  _263
REMARK                            x       y       z     vdW  Elec       q    Type
REMARK                         _______ _______ _______ _____ _____    ______ ____
ROOT
ATOM      1  O   HOH     1      10.180  -9.624  23.893  0.00  0.00    +0.000 OA
ENDROOT
TORSDOF 0
REMARK  Name = ../refined-set-2016/3uu1/3uu1_pocket.pdb
REMARK  97 active torsions:
REMARK  status: ('A' for Active; 'I' for Inactive)
REMARK    1  A    between atoms: _1  and  _3
REMARK    2  A    between atoms: _3  and  _4
REMARK    3  A    between atoms: _3  and  _6
REMARK    4  A    between atoms: _6  and  _7
REMARK    5  A    between atoms: _7  and  _8
REMARK    6  A    between atoms: _10  and  _12
REMARK    7  A    between atoms: _12  and  _13
REMARK    8  A    between atoms: _12  and  _15
REMARK    9  A    between atoms: _15  and  _16
REMARK   10  A    between atoms: _16  and  _17
REMARK   11  A    between atoms: _19  and  _21
REMARK   12  A    between atoms: _21  and  _22
REMARK   13  A    between atoms: _21  and  _24
REMARK   14  A    between atoms: _24  and  _25
REMARK   15  A    between atoms: _30  and  _32
REMARK   16  A    between atoms: _32  and  _33
REMARK   17  A    between atoms: _35  and  _37
REMARK   18  A    between atoms: _37  and  _38
REMARK   19  A    between atoms: _37  and  _40
REMARK   20  A    between atoms: _40  and  _41
REMARK   21  A    between atoms: _46  and  _48
REMARK   22  A    between atoms: _48  and  _49
REMARK   23  A    between atoms: _48  and  _51
REMARK   24  A    between atoms: _51  and  _52
REMARK   25  A    between atoms: _52  and  _53
REMARK   26  A    between atoms: _53  and  _54
REMARK   27  A    between atoms: _63  and  _65
REMARK   28  A    between atoms: _65  and  _66
REMARK   29  A    between atoms: _69  and  _71
REMARK   30  A    between atoms: _71  and  _72
REMARK   31  A    between atoms: _71  and  _74
REMARK   32  A    between atoms: _74  and  _75
REMARK   33  A    between atoms: _81  and  _83
REMARK   34  A    between atoms: _83  and  _84
REMARK   35  A    between atoms: _88  and  _89
REMARK   36  A    between atoms: _94  and  _96
REMARK   37  A    between atoms: _96  and  _97
REMARK   38  A    between atoms: _96  and  _99
REMARK   39  A    between atoms: _99  and  _100
REMARK   40  A    between atoms: _100  and  _101
REMARK   41  A    between atoms: _101  and  _102
REMARK   42  A    between atoms: _111  and  _113
REMARK   43  A    between atoms: _113  and  _114
REMARK   44  A    between atoms: _113  and  _116
REMARK   45  A    between atoms: _116  and  _117
REMARK   46  A    between atoms: _123  and  _125
REMARK   47  A    between atoms: _125  and  _126
REMARK   48  A    between atoms: _125  and  _128
REMARK   49  A    between atoms: _128  and  _129
REMARK   50  A    between atoms: _135  and  _136
REMARK   51  A    between atoms: _141  and  _143
REMARK   52  A    between atoms: _143  and  _144
REMARK   53  A    between atoms: _143  and  _146
REMARK   54  A    between atoms: _146  and  _147
REMARK   55  A    between atoms: _149  and  _151
REMARK   56  A    between atoms: _151  and  _152
REMARK   57  A    between atoms: _151  and  _154
REMARK   58  A    between atoms: _154  and  _155
REMARK   59  A    between atoms: _160  and  _161
REMARK   60  A    between atoms: _163  and  _165
REMARK   61  A    between atoms: _165  and  _166
REMARK   62  A    between atoms: _165  and  _168
REMARK   63  A    between atoms: _168  and  _169
REMARK   64  A    between atoms: _169  and  _170
REMARK   65  A    between atoms: _170  and  _171
REMARK   66  A    between atoms: _180  and  _182
REMARK   67  A    between atoms: _182  and  _183
REMARK   68  A    between atoms: _182  and  _185
REMARK   69  A    between atoms: _185  and  _186
REMARK   70  A    between atoms: _191  and  _193
REMARK   71  A    between atoms: _193  and  _194
REMARK   72  A    between atoms: _197  and  _199
REMARK   73  A    between atoms: _199  and  _200
REMARK   74  A    between atoms: _203  and  _205
REMARK   75  A    between atoms: _205  and  _206
REMARK   76  A    between atoms: _209  and  _211
REMARK   77  A    between atoms: _211  and  _212
REMARK   78  A    between atoms: _211  and  _214
REMARK   79  A    between atoms: _214  and  _215
REMARK   80  A    between atoms: _215  and  _216
REMARK   81  A    between atoms: _216  and  _217
REMARK   82  A    between atoms: _226  and  _228
REMARK   83  A    between atoms: _228  and  _229
REMARK   84  A    between atoms: _228  and  _231
REMARK   85  A    between atoms: _231  and  _232
REMARK   86  A    between atoms: _232  and  _233
REMARK   87  A    between atoms: _233  and  _234
REMARK   88  A    between atoms: _243  and  _245
REMARK   89  A    between atoms: _245  and  _246
REMARK   90  A    between atoms: _245  and  _248
REMARK   91  A    between atoms: _248  and  _249
REMARK   92  A    between atoms: _252  and  _254
REMARK   93  A    between atoms: _254  and  _255
REMARK   94  A    between atoms: _257  and  _259
REMARK   95  A    between atoms: _259  and  _260
REMARK   96  A    between atoms: _259  and  _262
REMARK   97  A    between atoms: _262  and  _263
REMARK                            x       y       z     vdW  Elec       q    Type
REMARK                         _______ _______ _______ _____ _____    ______ ____
ROOT
ATOM      1  O   HOH     1       7.337  -8.119  30.809  0.00  0.00    +0.000 OA
ENDROOT
TORSDOF 0
REMARK  Name = ../refined-set-2016/3uu1/3uu1_pocket.pdb
REMARK  97 active torsions:
REMARK  status: ('A' for Active; 'I' for Inactive)
REMARK    1  A    between atoms: _1  and  _3
REMARK    2  A    between atoms: _3  and  _4
REMARK    3  A    between atoms: _3  and  _6
REMARK    4  A    between atoms: _6  and  _7
REMARK    5  A    between atoms: _7  and  _8
REMARK    6  A    between atoms: _10  and  _12
REMARK    7  A    between atoms: _12  and  _13
REMARK    8  A    between atoms: _12  and  _15
REMARK    9  A    between atoms: _15  and  _16
REMARK   10  A    between atoms: _16  and  _17
REMARK   11  A    between atoms: _19  and  _21
REMARK   12  A    between atoms: _21  and  _22
REMARK   13  A    between atoms: _21  and  _24
REMARK   14  A    between atoms: _24  and  _25
REMARK   15  A    between atoms: _30  and  _32
REMARK   16  A    between atoms: _32  and  _33
REMARK   17  A    between atoms: _35  and  _37
REMARK   18  A    between atoms: _37  and  _38
REMARK   19  A    between atoms: _37  and  _40
REMARK   20  A    between atoms: _40  and  _41
REMARK   21  A    between atoms: _46  and  _48
REMARK   22  A    between atoms: _48  and  _49
REMARK   23  A    between atoms: _48  and  _51
REMARK   24  A    between atoms: _51  and  _52
REMARK   25  A    between atoms: _52  and  _53
REMARK   26  A    between atoms: _53  and  _54
REMARK   27  A    between atoms: _63  and  _65
REMARK   28  A    between atoms: _65  and  _66
REMARK   29  A    between atoms: _69  and  _71
REMARK   30  A    between atoms: _71  and  _72
REMARK   31  A    between atoms: _71  and  _74
REMARK   32  A    between atoms: _74  and  _75
REMARK   33  A    between atoms: _81  and  _83
REMARK   34  A    between atoms: _83  and  _84
REMARK   35  A    between atoms: _88  and  _89
REMARK   36  A    between atoms: _94  and  _96
REMARK   37  A    between atoms: _96  and  _97
REMARK   38  A    between atoms: _96  and  _99
REMARK   39  A    between atoms: _99  and  _100
REMARK   40  A    between atoms: _100  and  _101
REMARK   41  A    between atoms: _101  and  _102
REMARK   42  A    between atoms: _111  and  _113
REMARK   43  A    between atoms: _113  and  _114
REMARK   44  A    between atoms: _113  and  _116
REMARK   45  A    between atoms: _116  and  _117
REMARK   46  A    between atoms: _123  and  _125
REMARK   47  A    between atoms: _125  and  _126
REMARK   48  A    between atoms: _125  and  _128
REMARK   49  A    between atoms: _128  and  _129
REMARK   50  A    between atoms: _135  and  _136
REMARK   51  A    between atoms: _141  and  _143
REMARK   52  A    between atoms: _143  and  _144
REMARK   53  A    between atoms: _143  and  _146
REMARK   54  A    between atoms: _146  and  _147
REMARK   55  A    between atoms: _149  and  _151
REMARK   56  A    between atoms: _151  and  _152
REMARK   57  A    between atoms: _151  and  _154
REMARK   58  A    between atoms: _154  and  _155
REMARK   59  A    between atoms: _160  and  _161
REMARK   60  A    between atoms: _163  and  _165
REMARK   61  A    between atoms: _165  and  _166
REMARK   62  A    between atoms: _165  and  _168
REMARK   63  A    between atoms: _168  and  _169
REMARK   64  A    between atoms: _169  and  _170
REMARK   65  A    between atoms: _170  and  _171
REMARK   66  A    between atoms: _180  and  _182
REMARK   67  A    between atoms: _182  and  _183
REMARK   68  A    between atoms: _182  and  _185
REMARK   69  A    between atoms: _185  and  _186
REMARK   70  A    between atoms: _191  and  _193
REMARK   71  A    between atoms: _193  and  _194
REMARK   72  A    between atoms: _197  and  _199
REMARK   73  A    between atoms: _199  and  _200
REMARK   74  A    between atoms: _203  and  _205
REMARK   75  A    between atoms: _205  and  _206
REMARK   76  A    between atoms: _209  and  _211
REMARK   77  A    between atoms: _211  and  _212
REMARK   78  A    between atoms: _211  and  _214
REMARK   79  A    between atoms: _214  and  _215
REMARK   80  A    between atoms: _215  and  _216
REMARK   81  A    between atoms: _216  and  _217
REMARK   82  A    between atoms: _226  and  _228
REMARK   83  A    between atoms: _228  and  _229
REMARK   84  A    between atoms: _228  and  _231
REMARK   85  A    between atoms: _231  and  _232
REMARK   86  A    between atoms: _232  and  _233
REMARK   87  A    between atoms: _233  and  _234
REMARK   88  A    between atoms: _243  and  _245
REMARK   89  A    between atoms: _245  and  _246
REMARK   90  A    between atoms: _245  and  _248
REMARK   91  A    between atoms: _248  and  _249
REMARK   92  A    between atoms: _252  and  _254
REMARK   93  A    between atoms: _254  and  _255
REMARK   94  A    between atoms: _257  and  _259
REMARK   95  A    between atoms: _259  and  _260
REMARK   96  A    between atoms: _259  and  _262
REMARK   97  A    between atoms: _262  and  _263
REMARK                            x       y       z     vdW  Elec       q    Type
REMARK                         _______ _______ _______ _____ _____    ______ ____
ROOT
ATOM      1  O   HOH     1       3.470  -1.804  34.013  0.00  0.00    +0.000 OA
ENDROOT
TORSDOF 0
REMARK  Name = ../refined-set-2016/3uu1/3uu1_pocket.pdb
REMARK  97 active torsions:
REMARK  status: ('A' for Active; 'I' for Inactive)
REMARK    1  A    between atoms: _1  and  _3
REMARK    2  A    between atoms: _3  and  _4
REMARK    3  A    between atoms: _3  and  _6
REMARK    4  A    between atoms: _6  and  _7
REMARK    5  A    between atoms: _7  and  _8
REMARK    6  A    between atoms: _10  and  _12
REMARK    7  A    between atoms: _12  and  _13
REMARK    8  A    between atoms: _12  and  _15
REMARK    9  A    between atoms: _15  and  _16
REMARK   10  A    between atoms: _16  and  _17
REMARK   11  A    between atoms: _19  and  _21
REMARK   12  A    between atoms: _21  and  _22
REMARK   13  A    between atoms: _21  and  _24
REMARK   14  A    between atoms: _24  and  _25
REMARK   15  A    between atoms: _30  and  _32
REMARK   16  A    between atoms: _32  and  _33
REMARK   17  A    between atoms: _35  and  _37
REMARK   18  A    between atoms: _37  and  _38
REMARK   19  A    between atoms: _37  and  _40
REMARK   20  A    between atoms: _40  and  _41
REMARK   21  A    between atoms: _46  and  _48
REMARK   22  A    between atoms: _48  and  _49
REMARK   23  A    between atoms: _48  and  _51
REMARK   24  A    between atoms: _51  and  _52
REMARK   25  A    between atoms: _52  and  _53
REMARK   26  A    between atoms: _53  and  _54
REMARK   27  A    between atoms: _63  and  _65
REMARK   28  A    between atoms: _65  and  _66
REMARK   29  A    between atoms: _69  and  _71
REMARK   30  A    between atoms: _71  and  _72
REMARK   31  A    between atoms: _71  and  _74
REMARK   32  A    between atoms: _74  and  _75
REMARK   33  A    between atoms: _81  and  _83
REMARK   34  A    between atoms: _83  and  _84
REMARK   35  A    between atoms: _88  and  _89
REMARK   36  A    between atoms: _94  and  _96
REMARK   37  A    between atoms: _96  and  _97
REMARK   38  A    between atoms: _96  and  _99
REMARK   39  A    between atoms: _99  and  _100
REMARK   40  A    between atoms: _100  and  _101
REMARK   41  A    between atoms: _101  and  _102
REMARK   42  A    between atoms: _111  and  _113
REMARK   43  A    between atoms: _113  and  _114
REMARK   44  A    between atoms: _113  and  _116
REMARK   45  A    between atoms: _116  and  _117
REMARK   46  A    between atoms: _123  and  _125
REMARK   47  A    between atoms: _125  and  _126
REMARK   48  A    between atoms: _125  and  _128
REMARK   49  A    between atoms: _128  and  _129
REMARK   50  A    between atoms: _135  and  _136
REMARK   51  A    between atoms: _141  and  _143
REMARK   52  A    between atoms: _143  and  _144
REMARK   53  A    between atoms: _143  and  _146
REMARK   54  A    between atoms: _146  and  _147
REMARK   55  A    between atoms: _149  and  _151
REMARK   56  A    between atoms: _151  and  _152
REMARK   57  A    between atoms: _151  and  _154
REMARK   58  A    between atoms: _154  and  _155
REMARK   59  A    between atoms: _160  and  _161
REMARK   60  A    between atoms: _163  and  _165
REMARK   61  A    between atoms: _165  and  _166
REMARK   62  A    between atoms: _165  and  _168
REMARK   63  A    between atoms: _168  and  _169
REMARK   64  A    between atoms: _169  and  _170
REMARK   65  A    between atoms: _170  and  _171
REMARK   66  A    between atoms: _180  and  _182
REMARK   67  A    between atoms: _182  and  _183
REMARK   68  A    between atoms: _182  and  _185
REMARK   69  A    between atoms: _185  and  _186
REMARK   70  A    between atoms: _191  and  _193
REMARK   71  A    between atoms: _193  and  _194
REMARK   72  A    between atoms: _197  and  _199
REMARK   73  A    between atoms: _199  and  _200
REMARK   74  A    between atoms: _203  and  _205
REMARK   75  A    between atoms: _205  and  _206
REMARK   76  A    between atoms: _209  and  _211
REMARK   77  A    between atoms: _211  and  _212
REMARK   78  A    between atoms: _211  and  _214
REMARK   79  A    between atoms: _214  and  _215
REMARK   80  A    between atoms: _215  and  _216
REMARK   81  A    between atoms: _216  and  _217
REMARK   82  A    between atoms: _226  and  _228
REMARK   83  A    between atoms: _228  and  _229
REMARK   84  A    between atoms: _228  and  _231
REMARK   85  A    between atoms: _231  and  _232
REMARK   86  A    between atoms: _232  and  _233
REMARK   87  A    between atoms: _233  and  _234
REMARK   88  A    between atoms: _243  and  _245
REMARK   89  A    between atoms: _245  and  _246
REMARK   90  A    between atoms: _245  and  _248
REMARK   91  A    between atoms: _248  and  _249
REMARK   92  A    between atoms: _252  and  _254
REMARK   93  A    between atoms: _254  and  _255
REMARK   94  A    between atoms: _257  and  _259
REMARK   95  A    between atoms: _259  and  _260
REMARK   96  A    between atoms: _259  and  _262
REMARK   97  A    between atoms: _262  and  _263
REMARK                            x       y       z     vdW  Elec       q    Type
REMARK                         _______ _______ _______ _____ _____    ______ ____
ROOT
ATOM      1  O   HOH     1       6.538  -3.609  32.533  0.00  0.00    +0.000 OA
ENDROOT
TORSDOF 0
REMARK  Name = ../refined-set-2016/3uu1/3uu1_pocket.pdb
REMARK  97 active torsions:
REMARK  status: ('A' for Active; 'I' for Inactive)
REMARK    1  A    between atoms: _1  and  _3
REMARK    2  A    between atoms: _3  and  _4
REMARK    3  A    between atoms: _3  and  _6
REMARK    4  A    between atoms: _6  and  _7
REMARK    5  A    between atoms: _7  and  _8
REMARK    6  A    between atoms: _10  and  _12
REMARK    7  A    between atoms: _12  and  _13
REMARK    8  A    between atoms: _12  and  _15
REMARK    9  A    between atoms: _15  and  _16
REMARK   10  A    between atoms: _16  and  _17
REMARK   11  A    between atoms: _19  and  _21
REMARK   12  A    between atoms: _21  and  _22
REMARK   13  A    between atoms: _21  and  _24
REMARK   14  A    between atoms: _24  and  _25
REMARK   15  A    between atoms: _30  and  _32
REMARK   16  A    between atoms: _32  and  _33
REMARK   17  A    between atoms: _35  and  _37
REMARK   18  A    between atoms: _37  and  _38
REMARK   19  A    between atoms: _37  and  _40
REMARK   20  A    between atoms: _40  and  _41
REMARK   21  A    between atoms: _46  and  _48
REMARK   22  A    between atoms: _48  and  _49
REMARK   23  A    between atoms: _48  and  _51
REMARK   24  A    between atoms: _51  and  _52
REMARK   25  A    between atoms: _52  and  _53
REMARK   26  A    between atoms: _53  and  _54
REMARK   27  A    between atoms: _63  and  _65
REMARK   28  A    between atoms: _65  and  _66
REMARK   29  A    between atoms: _69  and  _71
REMARK   30  A    between atoms: _71  and  _72
REMARK   31  A    between atoms: _71  and  _74
REMARK   32  A    between atoms: _74  and  _75
REMARK   33  A    between atoms: _81  and  _83
REMARK   34  A    between atoms: _83  and  _84
REMARK   35  A    between atoms: _88  and  _89
REMARK   36  A    between atoms: _94  and  _96
REMARK   37  A    between atoms: _96  and  _97
REMARK   38  A    between atoms: _96  and  _99
REMARK   39  A    between atoms: _99  and  _100
REMARK   40  A    between atoms: _100  and  _101
REMARK   41  A    between atoms: _101  and  _102
REMARK   42  A    between atoms: _111  and  _113
REMARK   43  A    between atoms: _113  and  _114
REMARK   44  A    between atoms: _113  and  _116
REMARK   45  A    between atoms: _116  and  _117
REMARK   46  A    between atoms: _123  and  _125
REMARK   47  A    between atoms: _125  and  _126
REMARK   48  A    between atoms: _125  and  _128
REMARK   49  A    between atoms: _128  and  _129
REMARK   50  A    between atoms: _135  and  _136
REMARK   51  A    between atoms: _141  and  _143
REMARK   52  A    between atoms: _143  and  _144
REMARK   53  A    between atoms: _143  and  _146
REMARK   54  A    between atoms: _146  and  _147
REMARK   55  A    between atoms: _149  and  _151
REMARK   56  A    between atoms: _151  and  _152
REMARK   57  A    between atoms: _151  and  _154
REMARK   58  A    between atoms: _154  and  _155
REMARK   59  A    between atoms: _160  and  _161
REMARK   60  A    between atoms: _163  and  _165
REMARK   61  A    between atoms: _165  and  _166
REMARK   62  A    between atoms: _165  and  _168
REMARK   63  A    between atoms: _168  and  _169
REMARK   64  A    between atoms: _169  and  _170
REMARK   65  A    between atoms: _170  and  _171
REMARK   66  A    between atoms: _180  and  _182
REMARK   67  A    between atoms: _182  and  _183
REMARK   68  A    between atoms: _182  and  _185
REMARK   69  A    between atoms: _185  and  _186
REMARK   70  A    between atoms: _191  and  _193
REMARK   71  A    between atoms: _193  and  _194
REMARK   72  A    between atoms: _197  and  _199
REMARK   73  A    between atoms: _199  and  _200
REMARK   74  A    between atoms: _203  and  _205
REMARK   75  A    between atoms: _205  and  _206
REMARK   76  A    between atoms: _209  and  _211
REMARK   77  A    between atoms: _211  and  _212
REMARK   78  A    between atoms: _211  and  _214
REMARK   79  A    between atoms: _214  and  _215
REMARK   80  A    between atoms: _215  and  _216
REMARK   81  A    between atoms: _216  and  _217
REMARK   82  A    between atoms: _226  and  _228
REMARK   83  A    between atoms: _228  and  _229
REMARK   84  A    between atoms: _228  and  _231
REMARK   85  A    between atoms: _231  and  _232
REMARK   86  A    between atoms: _232  and  _233
REMARK   87  A    between atoms: _233  and  _234
REMARK   88  A    between atoms: _243  and  _245
REMARK   89  A    between atoms: _245  and  _246
REMARK   90  A    between atoms: _245  and  _248
REMARK   91  A    between atoms: _248  and  _249
REMARK   92  A    between atoms: _252  and  _254
REMARK   93  A    between atoms: _254  and  _255
REMARK   94  A    between atoms: _257  and  _259
REMARK   95  A    between atoms: _259  and  _260
REMARK   96  A    between atoms: _259  and  _262
REMARK   97  A    between atoms: _262  and  _263
REMARK                            x       y       z     vdW  Elec       q    Type
REMARK                         _______ _______ _______ _____ _____    ______ ____
ROOT
ATOM      1  O   HOH     1      12.745 -10.130  22.153  0.00  0.00    +0.000 OA
ENDROOT
TORSDOF 0
REMARK  Name = ../refined-set-2016/3uu1/3uu1_pocket.pdb
REMARK  97 active torsions:
REMARK  status: ('A' for Active; 'I' for Inactive)
REMARK    1  A    between atoms: _1  and  _3
REMARK    2  A    between atoms: _3  and  _4
REMARK    3  A    between atoms: _3  and  _6
REMARK    4  A    between atoms: _6  and  _7
REMARK    5  A    between atoms: _7  and  _8
REMARK    6  A    between atoms: _10  and  _12
REMARK    7  A    between atoms: _12  and  _13
REMARK    8  A    between atoms: _12  and  _15
REMARK    9  A    between atoms: _15  and  _16
REMARK   10  A    between atoms: _16  and  _17
REMARK   11  A    between atoms: _19  and  _21
REMARK   12  A    between atoms: _21  and  _22
REMARK   13  A    between atoms: _21  and  _24
REMARK   14  A    between atoms: _24  and  _25
REMARK   15  A    between atoms: _30  and  _32
REMARK   16  A    between atoms: _32  and  _33
REMARK   17  A    between atoms: _35  and  _37
REMARK   18  A    between atoms: _37  and  _38
REMARK   19  A    between atoms: _37  and  _40
REMARK   20  A    between atoms: _40  and  _41
REMARK   21  A    between atoms: _46  and  _48
REMARK   22  A    between atoms: _48  and  _49
REMARK   23  A    between atoms: _48  and  _51
REMARK   24  A    between atoms: _51  and  _52
REMARK   25  A    between atoms: _52  and  _53
REMARK   26  A    between atoms: _53  and  _54
REMARK   27  A    between atoms: _63  and  _65
REMARK   28  A    between atoms: _65  and  _66
REMARK   29  A    between atoms: _69  and  _71
REMARK   30  A    between atoms: _71  and  _72
REMARK   31  A    between atoms: _71  and  _74
REMARK   32  A    between atoms: _74  and  _75
REMARK   33  A    between atoms: _81  and  _83
REMARK   34  A    between atoms: _83  and  _84
REMARK   35  A    between atoms: _88  and  _89
REMARK   36  A    between atoms: _94  and  _96
REMARK   37  A    between atoms: _96  and  _97
REMARK   38  A    between atoms: _96  and  _99
REMARK   39  A    between atoms: _99  and  _100
REMARK   40  A    between atoms: _100  and  _101
REMARK   41  A    between atoms: _101  and  _102
REMARK   42  A    between atoms: _111  and  _113
REMARK   43  A    between atoms: _113  and  _114
REMARK   44  A    between atoms: _113  and  _116
REMARK   45  A    between atoms: _116  and  _117
REMARK   46  A    between atoms: _123  and  _125
REMARK   47  A    between atoms: _125  and  _126
REMARK   48  A    between atoms: _125  and  _128
REMARK   49  A    between atoms: _128  and  _129
REMARK   50  A    between atoms: _135  and  _136
REMARK   51  A    between atoms: _141  and  _143
REMARK   52  A    between atoms: _143  and  _144
REMARK   53  A    between atoms: _143  and  _146
REMARK   54  A    between atoms: _146  and  _147
REMARK   55  A    between atoms: _149  and  _151
REMARK   56  A    between atoms: _151  and  _152
REMARK   57  A    between atoms: _151  and  _154
REMARK   58  A    between atoms: _154  and  _155
REMARK   59  A    between atoms: _160  and  _161
REMARK   60  A    between atoms: _163  and  _165
REMARK   61  A    between atoms: _165  and  _166
REMARK   62  A    between atoms: _165  and  _168
REMARK   63  A    between atoms: _168  and  _169
REMARK   64  A    between atoms: _169  and  _170
REMARK   65  A    between atoms: _170  and  _171
REMARK   66  A    between atoms: _180  and  _182
REMARK   67  A    between atoms: _182  and  _183
REMARK   68  A    between atoms: _182  and  _185
REMARK   69  A    between atoms: _185  and  _186
REMARK   70  A    between atoms: _191  and  _193
REMARK   71  A    between atoms: _193  and  _194
REMARK   72  A    between atoms: _197  and  _199
REMARK   73  A    between atoms: _199  and  _200
REMARK   74  A    between atoms: _203  and  _205
REMARK   75  A    between atoms: _205  and  _206
REMARK   76  A    between atoms: _209  and  _211
REMARK   77  A    between atoms: _211  and  _212
REMARK   78  A    between atoms: _211  and  _214
REMARK   79  A    between atoms: _214  and  _215
REMARK   80  A    between atoms: _215  and  _216
REMARK   81  A    between atoms: _216  and  _217
REMARK   82  A    between atoms: _226  and  _228
REMARK   83  A    between atoms: _228  and  _229
REMARK   84  A    between atoms: _228  and  _231
REMARK   85  A    between atoms: _231  and  _232
REMARK   86  A    between atoms: _232  and  _233
REMARK   87  A    between atoms: _233  and  _234
REMARK   88  A    between atoms: _243  and  _245
REMARK   89  A    between atoms: _245  and  _246
REMARK   90  A    between atoms: _245  and  _248
REMARK   91  A    between atoms: _248  and  _249
REMARK   92  A    between atoms: _252  and  _254
REMARK   93  A    between atoms: _254  and  _255
REMARK   94  A    between atoms: _257  and  _259
REMARK   95  A    between atoms: _259  and  _260
REMARK   96  A    between atoms: _259  and  _262
REMARK   97  A    between atoms: _262  and  _263
REMARK                            x       y       z     vdW  Elec       q    Type
REMARK                         _______ _______ _______ _____ _____    ______ ____
ROOT
ATOM      1  O   HOH     1       8.940 -15.510  25.149  0.00  0.00    +0.000 OA
ENDROOT
TORSDOF 0
