REMARK  Name = ../refined-set-2016/3mz6/3mz6_pocket.pdb
REMARK  108 active torsions:
REMARK  status: ('A' for Active; 'I' for Inactive)
REMARK    1  A    between atoms: _1  and  _3
REMARK    2  A    between atoms: _3  and  _4
REMARK    3  A    between atoms: _3  and  _6
REMARK    4  A    between atoms: _6  and  _7
REMARK    5  A    between atoms: _7  and  _8
REMARK    6  A    between atoms: _8  and  _9
REMARK    7  A    between atoms: _18  and  _20
REMARK    8  A    between atoms: _20  and  _21
REMARK    9  A    between atoms: _20  and  _23
REMARK   10  A    between atoms: _23  and  _24
REMARK   11  A    between atoms: _29  and  _30
REMARK   12  A    between atoms: _32  and  _34
REMARK   13  A    between atoms: _34  and  _35
REMARK   14  A    between atoms: _34  and  _37
REMARK   15  A    between atoms: _37  and  _38
REMARK   16  A    between atoms: _41  and  _43
REMARK   17  A    between atoms: _43  and  _44
REMARK   18  A    between atoms: _46  and  _48
REMARK   19  A    between atoms: _48  and  _49
REMARK   20  A    between atoms: _48  and  _51
REMARK   21  A    between atoms: _51  and  _52
REMARK   22  A    between atoms: _62  and  _64
REMARK   23  A    between atoms: _64  and  _65
REMARK   24  A    between atoms: _64  and  _67
REMARK   25  A    between atoms: _67  and  _68
REMARK   26  A    between atoms: _73  and  _75
REMARK   27  A    between atoms: _75  and  _76
REMARK   28  A    between atoms: _75  and  _78
REMARK   29  A    between atoms: _78  and  _79
REMARK   30  A    between atoms: _84  and  _86
REMARK   31  A    between atoms: _86  and  _87
REMARK   32  A    between atoms: _86  and  _89
REMARK   33  A    between atoms: _89  and  _90
REMARK   34  A    between atoms: _92  and  _94
REMARK   35  A    between atoms: _94  and  _95
REMARK   36  A    between atoms: _97  and  _99
REMARK   37  A    between atoms: _99  and  _100
REMARK   38  A    between atoms: _99  and  _102
REMARK   39  A    between atoms: _102  and  _103
REMARK   40  A    between atoms: _109  and  _111
REMARK   41  A    between atoms: _111  and  _112
REMARK   42  A    between atoms: _111  and  _114
REMARK   43  A    between atoms: _116  and  _118
REMARK   44  A    between atoms: _118  and  _119
REMARK   45  A    between atoms: _118  and  _121
REMARK   46  A    between atoms: _121  and  _122
REMARK   47  A    between atoms: _125  and  _127
REMARK   48  A    between atoms: _136  and  _139
REMARK   49  A    between atoms: _139  and  _140
REMARK   50  A    between atoms: _145  and  _146
REMARK   51  A    between atoms: _154  and  _156
REMARK   52  A    between atoms: _156  and  _157
REMARK   53  A    between atoms: _156  and  _159
REMARK   54  A    between atoms: _159  and  _160
REMARK   55  A    between atoms: _165  and  _167
REMARK   56  A    between atoms: _167  and  _168
REMARK   57  A    between atoms: _170  and  _172
REMARK   58  A    between atoms: _172  and  _173
REMARK   59  A    between atoms: _172  and  _175
REMARK   60  A    between atoms: _175  and  _176
REMARK   61  A    between atoms: _179  and  _181
REMARK   62  A    between atoms: _181  and  _182
REMARK   63  A    between atoms: _184  and  _186
REMARK   64  A    between atoms: _186  and  _187
REMARK   65  A    between atoms: _186  and  _189
REMARK   66  A    between atoms: _189  and  _190
REMARK   67  A    between atoms: _196  and  _198
REMARK   68  A    between atoms: _198  and  _199
REMARK   69  A    between atoms: _198  and  _201
REMARK   70  A    between atoms: _201  and  _202
REMARK   71  A    between atoms: _209  and  _210
REMARK   72  A    between atoms: _215  and  _217
REMARK   73  A    between atoms: _217  and  _218
REMARK   74  A    between atoms: _217  and  _220
REMARK   75  A    between atoms: _220  and  _221
REMARK   76  A    between atoms: _221  and  _222
REMARK   77  A    between atoms: _227  and  _229
REMARK   78  A    between atoms: _229  and  _230
REMARK   79  A    between atoms: _232  and  _234
REMARK   80  A    between atoms: _234  and  _235
REMARK   81  A    between atoms: _238  and  _240
REMARK   82  A    between atoms: _240  and  _241
REMARK   83  A    between atoms: _240  and  _243
REMARK   84  A    between atoms: _243  and  _244
REMARK   85  A    between atoms: _244  and  _246
REMARK   86  A    between atoms: _246  and  FE_299
REMARK   87  A    between atoms: _247  and  _249
REMARK   88  A    between atoms: _249  and  _250
REMARK   89  A    between atoms: _249  and  _252
REMARK   90  A    between atoms: _252  and  _253
REMARK   91  A    between atoms: _256  and  _258
REMARK   92  A    between atoms: _258  and  _259
REMARK   93  A    between atoms: _258  and  _261
REMARK   94  A    between atoms: _261  and  _262
REMARK   95  A    between atoms: _262  and  _263
REMARK   96  A    between atoms: _265  and  _267
REMARK   97  A    between atoms: _267  and  _268
REMARK   98  A    between atoms: _270  and  _272
REMARK   99  A    between atoms: _272  and  _273
REMARK  100  A    between atoms: _275  and  _277
REMARK  101  A    between atoms: _277  and  _278
REMARK  102  A    between atoms: _280  and  _282
REMARK  103  A    between atoms: _282  and  _283
REMARK  104  A    between atoms: _285  and  _287
REMARK  105  A    between atoms: _287  and  _288
REMARK  106  A    between atoms: _287  and  _290
REMARK  107  A    between atoms: _290  and  _291
REMARK  108  A    between atoms: _296  and  _297
REMARK                            x       y       z     vdW  Elec       q    Type
REMARK                         _______ _______ _______ _____ _____    ______ ____
ROOT
ATOM      1  NE  ARG A   1       0.394  28.801  10.914  0.00  0.00    -0.265 N 
ATOM      2  HE  ARG A   1       1.009  28.287  11.577  0.00  0.00    +0.259 HD
ATOM      3  CZ  ARG A   1       0.889  29.109   9.716  0.00  0.00    +0.342 C 
ATOM      4  NH2 ARG A   1       2.099  28.695   9.390  0.00  0.00    -0.292 N 
ATOM      5 HH21 ARG A   1       2.656  28.134  10.066  0.00  0.00    +0.255 HD
ATOM      6 HH22 ARG A   1       2.495  28.930   8.458  0.00  0.00    +0.255 HD
ATOM      7  NH1 ARG A   1       0.149  29.789   8.837  0.00  0.00    -0.292 N 
ATOM      8 HH11 ARG A   1      -0.818  30.080   9.086  0.00  0.00    +0.255 HD
ATOM      9 HH12 ARG A   1       0.539  30.027   7.903  0.00  0.00    +0.255 HD
ENDROOT
BRANCH   1  10
ATOM     10  CD  ARG A   1      -0.950  29.137  11.353  0.00  0.00    +0.174 C 
BRANCH  10  11
ATOM     11  CG  ARG A   1      -1.176  28.647  12.778  0.00  0.00    +0.045 C 
BRANCH  11  12
ATOM     12  CB  ARG A   1      -0.256  29.341  13.824  0.00  0.00    +0.029 C 
BRANCH  12  13
ATOM     13  CA  ARG A   1      -0.525  28.788  15.228  0.00  0.00    +0.133 C 
BRANCH  13  14
ATOM     14  N   ARG A   1      -0.054  29.704  16.282  0.00  0.00    -0.239 NA
ATOM     15  H   ARG A   1       0.411  30.600  16.030  0.00  0.00    +0.142 HD
ENDBRANCH  13  14
BRANCH  13  16
ATOM     16  C   ARG A   1       0.123  27.417  15.355  0.00  0.00    +0.224 C 
ATOM     17  O   ARG A   1      -0.522  26.388  15.132  0.00  0.00    -0.287 OA
ENDBRANCH  13  16
ENDBRANCH  12  13
ENDBRANCH  11  12
ENDBRANCH  10  11
ENDBRANCH   1  10
TORSDOF 6
REMARK  Name = ../refined-set-2016/3mz6/3mz6_pocket.pdb
REMARK  108 active torsions:
REMARK  status: ('A' for Active; 'I' for Inactive)
REMARK    1  A    between atoms: _1  and  _3
REMARK    2  A    between atoms: _3  and  _4
REMARK    3  A    between atoms: _3  and  _6
REMARK    4  A    between atoms: _6  and  _7
REMARK    5  A    between atoms: _7  and  _8
REMARK    6  A    between atoms: _8  and  _9
REMARK    7  A    between atoms: _18  and  _20
REMARK    8  A    between atoms: _20  and  _21
REMARK    9  A    between atoms: _20  and  _23
REMARK   10  A    between atoms: _23  and  _24
REMARK   11  A    between atoms: _29  and  _30
REMARK   12  A    between atoms: _32  and  _34
REMARK   13  A    between atoms: _34  and  _35
REMARK   14  A    between atoms: _34  and  _37
REMARK   15  A    between atoms: _37  and  _38
REMARK   16  A    between atoms: _41  and  _43
REMARK   17  A    between atoms: _43  and  _44
REMARK   18  A    between atoms: _46  and  _48
REMARK   19  A    between atoms: _48  and  _49
REMARK   20  A    between atoms: _48  and  _51
REMARK   21  A    between atoms: _51  and  _52
REMARK   22  A    between atoms: _62  and  _64
REMARK   23  A    between atoms: _64  and  _65
REMARK   24  A    between atoms: _64  and  _67
REMARK   25  A    between atoms: _67  and  _68
REMARK   26  A    between atoms: _73  and  _75
REMARK   27  A    between atoms: _75  and  _76
REMARK   28  A    between atoms: _75  and  _78
REMARK   29  A    between atoms: _78  and  _79
REMARK   30  A    between atoms: _84  and  _86
REMARK   31  A    between atoms: _86  and  _87
REMARK   32  A    between atoms: _86  and  _89
REMARK   33  A    between atoms: _89  and  _90
REMARK   34  A    between atoms: _92  and  _94
REMARK   35  A    between atoms: _94  and  _95
REMARK   36  A    between atoms: _97  and  _99
REMARK   37  A    between atoms: _99  and  _100
REMARK   38  A    between atoms: _99  and  _102
REMARK   39  A    between atoms: _102  and  _103
REMARK   40  A    between atoms: _109  and  _111
REMARK   41  A    between atoms: _111  and  _112
REMARK   42  A    between atoms: _111  and  _114
REMARK   43  A    between atoms: _116  and  _118
REMARK   44  A    between atoms: _118  and  _119
REMARK   45  A    between atoms: _118  and  _121
REMARK   46  A    between atoms: _121  and  _122
REMARK   47  A    between atoms: _125  and  _127
REMARK   48  A    between atoms: _136  and  _139
REMARK   49  A    between atoms: _139  and  _140
REMARK   50  A    between atoms: _145  and  _146
REMARK   51  A    between atoms: _154  and  _156
REMARK   52  A    between atoms: _156  and  _157
REMARK   53  A    between atoms: _156  and  _159
REMARK   54  A    between atoms: _159  and  _160
REMARK   55  A    between atoms: _165  and  _167
REMARK   56  A    between atoms: _167  and  _168
REMARK   57  A    between atoms: _170  and  _172
REMARK   58  A    between atoms: _172  and  _173
REMARK   59  A    between atoms: _172  and  _175
REMARK   60  A    between atoms: _175  and  _176
REMARK   61  A    between atoms: _179  and  _181
REMARK   62  A    between atoms: _181  and  _182
REMARK   63  A    between atoms: _184  and  _186
REMARK   64  A    between atoms: _186  and  _187
REMARK   65  A    between atoms: _186  and  _189
REMARK   66  A    between atoms: _189  and  _190
REMARK   67  A    between atoms: _196  and  _198
REMARK   68  A    between atoms: _198  and  _199
REMARK   69  A    between atoms: _198  and  _201
REMARK   70  A    between atoms: _201  and  _202
REMARK   71  A    between atoms: _209  and  _210
REMARK   72  A    between atoms: _215  and  _217
REMARK   73  A    between atoms: _217  and  _218
REMARK   74  A    between atoms: _217  and  _220
REMARK   75  A    between atoms: _220  and  _221
REMARK   76  A    between atoms: _221  and  _222
REMARK   77  A    between atoms: _227  and  _229
REMARK   78  A    between atoms: _229  and  _230
REMARK   79  A    between atoms: _232  and  _234
REMARK   80  A    between atoms: _234  and  _235
REMARK   81  A    between atoms: _238  and  _240
REMARK   82  A    between atoms: _240  and  _241
REMARK   83  A    between atoms: _240  and  _243
REMARK   84  A    between atoms: _243  and  _244
REMARK   85  A    between atoms: _244  and  _246
REMARK   86  A    between atoms: _246  and  FE_299
REMARK   87  A    between atoms: _247  and  _249
REMARK   88  A    between atoms: _249  and  _250
REMARK   89  A    between atoms: _249  and  _252
REMARK   90  A    between atoms: _252  and  _253
REMARK   91  A    between atoms: _256  and  _258
REMARK   92  A    between atoms: _258  and  _259
REMARK   93  A    between atoms: _258  and  _261
REMARK   94  A    between atoms: _261  and  _262
REMARK   95  A    between atoms: _262  and  _263
REMARK   96  A    between atoms: _265  and  _267
REMARK   97  A    between atoms: _267  and  _268
REMARK   98  A    between atoms: _270  and  _272
REMARK   99  A    between atoms: _272  and  _273
REMARK  100  A    between atoms: _275  and  _277
REMARK  101  A    between atoms: _277  and  _278
REMARK  102  A    between atoms: _280  and  _282
REMARK  103  A    between atoms: _282  and  _283
REMARK  104  A    between atoms: _285  and  _287
REMARK  105  A    between atoms: _287  and  _288
REMARK  106  A    between atoms: _287  and  _290
REMARK  107  A    between atoms: _290  and  _291
REMARK  108  A    between atoms: _296  and  _297
REMARK                            x       y       z     vdW  Elec       q    Type
REMARK                         _______ _______ _______ _____ _____    ______ ____
ROOT
ATOM      1  CA  TYR A   1       6.717  46.598   6.373  0.00  0.00    +0.149 C 
ENDROOT
BRANCH   1   2
ATOM      2  C   TYR A   1       6.271  45.144   6.547  0.00  0.00    +0.239 C 
ATOM      3  O   TYR A   1       5.751  44.784   7.603  0.00  0.00    -0.274 OA
ATOM      4  N   LEU A   2       6.480  44.318   5.520  0.00  0.00    -0.298 N 
ATOM      5  H   LEU A   2       6.924  44.685   4.654  0.00  0.00    +0.150 HD
BRANCH   4   6
ATOM      6  CA  LEU A   2       6.097  42.903   5.586  0.00  0.00    +0.137 C 
BRANCH   6   7
ATOM      7  C   LEU A   2       7.049  42.043   6.445  0.00  0.00    +0.227 C 
ATOM      8  O   LEU A   2       6.617  41.089   7.113  0.00  0.00    -0.286 OA
ENDBRANCH   6   7
BRANCH   6   9
ATOM      9  CB  LEU A   2       5.865  42.313   4.184  0.00  0.00    +0.028 C 
BRANCH   9  10
ATOM     10  CG  LEU A   2       4.872  43.068   3.258  0.00  0.00    +0.002 C 
ATOM     11  CD2 LEU A   2       3.491  43.341   3.901  0.00  0.00    +0.000 C 
ATOM     12  CD1 LEU A   2       4.693  42.404   1.893  0.00  0.00    +0.000 C 
ENDBRANCH   9  10
ENDBRANCH   6   9
ENDBRANCH   4   6
ENDBRANCH   1   2
BRANCH   1  13
ATOM     13  N   TYR A   1       8.054  46.692   5.805  0.00  0.00    -0.238 NA
ATOM     14  H   TYR A   1       8.194  47.227   4.924  0.00  0.00    +0.142 HD
ENDBRANCH   1  13
BRANCH   1  15
ATOM     15  CB  TYR A   1       5.699  47.396   5.533  0.00  0.00    +0.053 C 
BRANCH  15  16
ATOM     16  CG  TYR A   1       4.305  47.443   6.138  0.00  0.00    -0.020 A 
ATOM     17  CD2 TYR A   1       3.995  48.349   7.164  0.00  0.00    -0.001 A 
ATOM     18  CE2 TYR A   1       2.719  48.389   7.732  0.00  0.00    +0.036 A 
ATOM     19  CZ  TYR A   1       1.736  47.517   7.273  0.00  0.00    +0.134 A 
ATOM     20  CE1 TYR A   1       2.014  46.601   6.256  0.00  0.00    +0.036 A 
ATOM     21  CD1 TYR A   1       3.302  46.566   5.702  0.00  0.00    -0.001 A 
BRANCH  19  22
ATOM     22  OH  TYR A   1       0.475  47.555   7.839  0.00  0.00    -0.506 OA
ATOM     23  HH  TYR A   1       0.449  48.255   8.538  0.00  0.00    +0.292 HD
ENDBRANCH  19  22
ENDBRANCH  15  16
ENDBRANCH   1  15
TORSDOF 9
REMARK  Name = ../refined-set-2016/3mz6/3mz6_pocket.pdb
REMARK  108 active torsions:
REMARK  status: ('A' for Active; 'I' for Inactive)
REMARK    1  A    between atoms: _1  and  _3
REMARK    2  A    between atoms: _3  and  _4
REMARK    3  A    between atoms: _3  and  _6
REMARK    4  A    between atoms: _6  and  _7
REMARK    5  A    between atoms: _7  and  _8
REMARK    6  A    between atoms: _8  and  _9
REMARK    7  A    between atoms: _18  and  _20
REMARK    8  A    between atoms: _20  and  _21
REMARK    9  A    between atoms: _20  and  _23
REMARK   10  A    between atoms: _23  and  _24
REMARK   11  A    between atoms: _29  and  _30
REMARK   12  A    between atoms: _32  and  _34
REMARK   13  A    between atoms: _34  and  _35
REMARK   14  A    between atoms: _34  and  _37
REMARK   15  A    between atoms: _37  and  _38
REMARK   16  A    between atoms: _41  and  _43
REMARK   17  A    between atoms: _43  and  _44
REMARK   18  A    between atoms: _46  and  _48
REMARK   19  A    between atoms: _48  and  _49
REMARK   20  A    between atoms: _48  and  _51
REMARK   21  A    between atoms: _51  and  _52
REMARK   22  A    between atoms: _62  and  _64
REMARK   23  A    between atoms: _64  and  _65
REMARK   24  A    between atoms: _64  and  _67
REMARK   25  A    between atoms: _67  and  _68
REMARK   26  A    between atoms: _73  and  _75
REMARK   27  A    between atoms: _75  and  _76
REMARK   28  A    between atoms: _75  and  _78
REMARK   29  A    between atoms: _78  and  _79
REMARK   30  A    between atoms: _84  and  _86
REMARK   31  A    between atoms: _86  and  _87
REMARK   32  A    between atoms: _86  and  _89
REMARK   33  A    between atoms: _89  and  _90
REMARK   34  A    between atoms: _92  and  _94
REMARK   35  A    between atoms: _94  and  _95
REMARK   36  A    between atoms: _97  and  _99
REMARK   37  A    between atoms: _99  and  _100
REMARK   38  A    between atoms: _99  and  _102
REMARK   39  A    between atoms: _102  and  _103
REMARK   40  A    between atoms: _109  and  _111
REMARK   41  A    between atoms: _111  and  _112
REMARK   42  A    between atoms: _111  and  _114
REMARK   43  A    between atoms: _116  and  _118
REMARK   44  A    between atoms: _118  and  _119
REMARK   45  A    between atoms: _118  and  _121
REMARK   46  A    between atoms: _121  and  _122
REMARK   47  A    between atoms: _125  and  _127
REMARK   48  A    between atoms: _136  and  _139
REMARK   49  A    between atoms: _139  and  _140
REMARK   50  A    between atoms: _145  and  _146
REMARK   51  A    between atoms: _154  and  _156
REMARK   52  A    between atoms: _156  and  _157
REMARK   53  A    between atoms: _156  and  _159
REMARK   54  A    between atoms: _159  and  _160
REMARK   55  A    between atoms: _165  and  _167
REMARK   56  A    between atoms: _167  and  _168
REMARK   57  A    between atoms: _170  and  _172
REMARK   58  A    between atoms: _172  and  _173
REMARK   59  A    between atoms: _172  and  _175
REMARK   60  A    between atoms: _175  and  _176
REMARK   61  A    between atoms: _179  and  _181
REMARK   62  A    between atoms: _181  and  _182
REMARK   63  A    between atoms: _184  and  _186
REMARK   64  A    between atoms: _186  and  _187
REMARK   65  A    between atoms: _186  and  _189
REMARK   66  A    between atoms: _189  and  _190
REMARK   67  A    between atoms: _196  and  _198
REMARK   68  A    between atoms: _198  and  _199
REMARK   69  A    between atoms: _198  and  _201
REMARK   70  A    between atoms: _201  and  _202
REMARK   71  A    between atoms: _209  and  _210
REMARK   72  A    between atoms: _215  and  _217
REMARK   73  A    between atoms: _217  and  _218
REMARK   74  A    between atoms: _217  and  _220
REMARK   75  A    between atoms: _220  and  _221
REMARK   76  A    between atoms: _221  and  _222
REMARK   77  A    between atoms: _227  and  _229
REMARK   78  A    between atoms: _229  and  _230
REMARK   79  A    between atoms: _232  and  _234
REMARK   80  A    between atoms: _234  and  _235
REMARK   81  A    between atoms: _238  and  _240
REMARK   82  A    between atoms: _240  and  _241
REMARK   83  A    between atoms: _240  and  _243
REMARK   84  A    between atoms: _243  and  _244
REMARK   85  A    between atoms: _244  and  _246
REMARK   86  A    between atoms: _246  and  FE_299
REMARK   87  A    between atoms: _247  and  _249
REMARK   88  A    between atoms: _249  and  _250
REMARK   89  A    between atoms: _249  and  _252
REMARK   90  A    between atoms: _252  and  _253
REMARK   91  A    between atoms: _256  and  _258
REMARK   92  A    between atoms: _258  and  _259
REMARK   93  A    between atoms: _258  and  _261
REMARK   94  A    between atoms: _261  and  _262
REMARK   95  A    between atoms: _262  and  _263
REMARK   96  A    between atoms: _265  and  _267
REMARK   97  A    between atoms: _267  and  _268
REMARK   98  A    between atoms: _270  and  _272
REMARK   99  A    between atoms: _272  and  _273
REMARK  100  A    between atoms: _275  and  _277
REMARK  101  A    between atoms: _277  and  _278
REMARK  102  A    between atoms: _280  and  _282
REMARK  103  A    between atoms: _282  and  _283
REMARK  104  A    between atoms: _285  and  _287
REMARK  105  A    between atoms: _287  and  _288
REMARK  106  A    between atoms: _287  and  _290
REMARK  107  A    between atoms: _290  and  _291
REMARK  108  A    between atoms: _296  and  _297
REMARK                            x       y       z     vdW  Elec       q    Type
REMARK                         _______ _______ _______ _____ _____    ______ ____
ROOT
ATOM      1  C   TRP A   2       9.010  30.611   2.273  0.00  0.00    +0.241 C 
ATOM      2  O   TRP A   2      10.158  30.959   2.120  0.00  0.00    -0.273 OA
ATOM      3  N   HIS A   3       8.145  30.654   1.285  0.00  0.00    -0.297 N 
ATOM      4  H   HIS A   3       7.134  30.785   1.490  0.00  0.00    +0.150 HD
ENDROOT
BRANCH   1   5
ATOM      5  CA  TRP A   2       8.455  30.223   3.650  0.00  0.00    +0.153 C 
BRANCH   5   7
ATOM      6  C   GLY A   1       7.229  28.094   3.381  0.00  0.00    +0.240 C 
ATOM      7  N   TRP A   2       8.293  28.754   3.845  0.00  0.00    -0.297 N 
ATOM      8  H   TRP A   2       9.030  28.228   4.357  0.00  0.00    +0.150 HD
ATOM      9  O   GLY A   1       6.356  28.631   2.661  0.00  0.00    -0.274 OA
BRANCH   6  10
ATOM     10  CA  GLY A   1       7.141  26.607   3.700  0.00  0.00    +0.169 C 
BRANCH  10  11
ATOM     11  N   GLY A   1       7.832  26.199   4.922  0.00  0.00    -0.236 NA
ATOM     12  H   GLY A   1       8.858  26.033   4.885  0.00  0.00    +0.142 HD
ENDBRANCH  10  11
ENDBRANCH   6  10
ENDBRANCH   5   7
BRANCH   5  13
ATOM     13  CB  TRP A   2       9.063  30.911   4.887  0.00  0.00    +0.057 C 
BRANCH  13  14
ATOM     14  CG  TRP A   2       8.280  30.492   6.134  0.00  0.00    -0.002 A 
ATOM     15  CD1 TRP A   2       8.635  29.535   7.023  0.00  0.00    +0.068 A 
ATOM     16  NE1 TRP A   2       7.674  29.383   7.986  0.00  0.00    -0.352 N 
ATOM     17  HE1 TRP A   2       7.733  28.738   8.799  0.00  0.00    +0.166 HD
ATOM     18  CE2 TRP A   2       6.622  30.215   7.709  0.00  0.00    +0.056 A 
ATOM     19  CZ2 TRP A   2       5.419  30.423   8.402  0.00  0.00    +0.017 A 
ATOM     20  CH2 TRP A   2       4.541  31.329   7.884  0.00  0.00    +0.001 A 
ATOM     21  CZ3 TRP A   2       4.838  32.058   6.719  0.00  0.00    +0.000 A 
ATOM     22  CE3 TRP A   2       6.050  31.875   6.045  0.00  0.00    +0.001 A 
ATOM     23  CD2 TRP A   2       6.959  30.933   6.539  0.00  0.00    +0.013 A 
ENDBRANCH  13  14
ENDBRANCH   5  13
ENDBRANCH   1   5
BRANCH   3  24
ATOM     24  CA  HIS A   3       8.584  30.522  -0.074  0.00  0.00    +0.155 C 
BRANCH  24  25
ATOM     25  C   HIS A   3       8.943  31.837  -0.775  0.00  0.00    +0.241 C 
ATOM     26  N   HIS A   4       8.786  32.996  -0.104  0.00  0.00    -0.298 N 
ATOM     27  H   HIS A   4       8.445  32.986   0.878  0.00  0.00    +0.150 HD
ATOM     28  O   HIS A   3       9.334  31.796  -1.931  0.00  0.00    -0.273 OA
BRANCH  26  29
ATOM     29  CA  HIS A   4       9.095  34.265  -0.757  0.00  0.00    +0.143 C 
BRANCH  29  30
ATOM     30  C   HIS A   4      10.535  34.718  -0.596  0.00  0.00    +0.227 C 
ATOM     31  O   HIS A   4      10.963  35.591  -1.336  0.00  0.00    -0.286 OA
ENDBRANCH  29  30
BRANCH  29  32
ATOM     32  CB  HIS A   4       8.197  35.415  -0.235  0.00  0.00    +0.075 C 
BRANCH  32  33
ATOM     33  CG  HIS A   4       6.742  35.202  -0.458  0.00  0.00    +0.082 A 
ATOM     34  CD2 HIS A   4       5.708  35.121   0.412  0.00  0.00    +0.115 A 
ATOM     35  NE2 HIS A   4       4.572  34.900  -0.334  0.00  0.00    -0.221 NA
ATOM     36  CE1 HIS A   4       4.905  34.845  -1.611  0.00  0.00    +0.199 A 
ATOM     37  ND1 HIS A   4       6.207  35.030  -1.709  0.00  0.00    -0.227 NA
ENDBRANCH  32  33
ENDBRANCH  29  32
ENDBRANCH  26  29
ENDBRANCH  24  25
BRANCH  24  38
ATOM     38  CB  HIS A   3       7.479  29.775  -0.840  0.00  0.00    +0.076 C 
BRANCH  38  39
ATOM     39  CG  HIS A   3       6.142  30.444  -0.758  0.00  0.00    +0.082 A 
ATOM     40  CD2 HIS A   3       5.700  31.474   0.010  0.00  0.00    +0.115 A 
ATOM     41  NE2 HIS A   3       4.386  31.695  -0.326  0.00  0.00    -0.221 NA
ATOM     42  CE1 HIS A   3       4.044  30.861  -1.292  0.00  0.00    +0.199 A 
ATOM     43  ND1 HIS A   3       5.080  30.082  -1.560  0.00  0.00    -0.227 NA
ENDBRANCH  38  39
ENDBRANCH  24  38
ENDBRANCH   3  24
TORSDOF 14
REMARK  Name = ../refined-set-2016/3mz6/3mz6_pocket.pdb
REMARK  108 active torsions:
REMARK  status: ('A' for Active; 'I' for Inactive)
REMARK    1  A    between atoms: _1  and  _3
REMARK    2  A    between atoms: _3  and  _4
REMARK    3  A    between atoms: _3  and  _6
REMARK    4  A    between atoms: _6  and  _7
REMARK    5  A    between atoms: _7  and  _8
REMARK    6  A    between atoms: _8  and  _9
REMARK    7  A    between atoms: _18  and  _20
REMARK    8  A    between atoms: _20  and  _21
REMARK    9  A    between atoms: _20  and  _23
REMARK   10  A    between atoms: _23  and  _24
REMARK   11  A    between atoms: _29  and  _30
REMARK   12  A    between atoms: _32  and  _34
REMARK   13  A    between atoms: _34  and  _35
REMARK   14  A    between atoms: _34  and  _37
REMARK   15  A    between atoms: _37  and  _38
REMARK   16  A    between atoms: _41  and  _43
REMARK   17  A    between atoms: _43  and  _44
REMARK   18  A    between atoms: _46  and  _48
REMARK   19  A    between atoms: _48  and  _49
REMARK   20  A    between atoms: _48  and  _51
REMARK   21  A    between atoms: _51  and  _52
REMARK   22  A    between atoms: _62  and  _64
REMARK   23  A    between atoms: _64  and  _65
REMARK   24  A    between atoms: _64  and  _67
REMARK   25  A    between atoms: _67  and  _68
REMARK   26  A    between atoms: _73  and  _75
REMARK   27  A    between atoms: _75  and  _76
REMARK   28  A    between atoms: _75  and  _78
REMARK   29  A    between atoms: _78  and  _79
REMARK   30  A    between atoms: _84  and  _86
REMARK   31  A    between atoms: _86  and  _87
REMARK   32  A    between atoms: _86  and  _89
REMARK   33  A    between atoms: _89  and  _90
REMARK   34  A    between atoms: _92  and  _94
REMARK   35  A    between atoms: _94  and  _95
REMARK   36  A    between atoms: _97  and  _99
REMARK   37  A    between atoms: _99  and  _100
REMARK   38  A    between atoms: _99  and  _102
REMARK   39  A    between atoms: _102  and  _103
REMARK   40  A    between atoms: _109  and  _111
REMARK   41  A    between atoms: _111  and  _112
REMARK   42  A    between atoms: _111  and  _114
REMARK   43  A    between atoms: _116  and  _118
REMARK   44  A    between atoms: _118  and  _119
REMARK   45  A    between atoms: _118  and  _121
REMARK   46  A    between atoms: _121  and  _122
REMARK   47  A    between atoms: _125  and  _127
REMARK   48  A    between atoms: _136  and  _139
REMARK   49  A    between atoms: _139  and  _140
REMARK   50  A    between atoms: _145  and  _146
REMARK   51  A    between atoms: _154  and  _156
REMARK   52  A    between atoms: _156  and  _157
REMARK   53  A    between atoms: _156  and  _159
REMARK   54  A    between atoms: _159  and  _160
REMARK   55  A    between atoms: _165  and  _167
REMARK   56  A    between atoms: _167  and  _168
REMARK   57  A    between atoms: _170  and  _172
REMARK   58  A    between atoms: _172  and  _173
REMARK   59  A    between atoms: _172  and  _175
REMARK   60  A    between atoms: _175  and  _176
REMARK   61  A    between atoms: _179  and  _181
REMARK   62  A    between atoms: _181  and  _182
REMARK   63  A    between atoms: _184  and  _186
REMARK   64  A    between atoms: _186  and  _187
REMARK   65  A    between atoms: _186  and  _189
REMARK   66  A    between atoms: _189  and  _190
REMARK   67  A    between atoms: _196  and  _198
REMARK   68  A    between atoms: _198  and  _199
REMARK   69  A    between atoms: _198  and  _201
REMARK   70  A    between atoms: _201  and  _202
REMARK   71  A    between atoms: _209  and  _210
REMARK   72  A    between atoms: _215  and  _217
REMARK   73  A    between atoms: _217  and  _218
REMARK   74  A    between atoms: _217  and  _220
REMARK   75  A    between atoms: _220  and  _221
REMARK   76  A    between atoms: _221  and  _222
REMARK   77  A    between atoms: _227  and  _229
REMARK   78  A    between atoms: _229  and  _230
REMARK   79  A    between atoms: _232  and  _234
REMARK   80  A    between atoms: _234  and  _235
REMARK   81  A    between atoms: _238  and  _240
REMARK   82  A    between atoms: _240  and  _241
REMARK   83  A    between atoms: _240  and  _243
REMARK   84  A    between atoms: _243  and  _244
REMARK   85  A    between atoms: _244  and  _246
REMARK   86  A    between atoms: _246  and  FE_299
REMARK   87  A    between atoms: _247  and  _249
REMARK   88  A    between atoms: _249  and  _250
REMARK   89  A    between atoms: _249  and  _252
REMARK   90  A    between atoms: _252  and  _253
REMARK   91  A    between atoms: _256  and  _258
REMARK   92  A    between atoms: _258  and  _259
REMARK   93  A    between atoms: _258  and  _261
REMARK   94  A    between atoms: _261  and  _262
REMARK   95  A    between atoms: _262  and  _263
REMARK   96  A    between atoms: _265  and  _267
REMARK   97  A    between atoms: _267  and  _268
REMARK   98  A    between atoms: _270  and  _272
REMARK   99  A    between atoms: _272  and  _273
REMARK  100  A    between atoms: _275  and  _277
REMARK  101  A    between atoms: _277  and  _278
REMARK  102  A    between atoms: _280  and  _282
REMARK  103  A    between atoms: _282  and  _283
REMARK  104  A    between atoms: _285  and  _287
REMARK  105  A    between atoms: _287  and  _288
REMARK  106  A    between atoms: _287  and  _290
REMARK  107  A    between atoms: _290  and  _291
REMARK  108  A    between atoms: _296  and  _297
REMARK                            x       y       z     vdW  Elec       q    Type
REMARK                         _______ _______ _______ _____ _____    ______ ____
ROOT
ATOM      1  CA  PHE A   3       6.965  37.534   6.099  0.00  0.00    +0.153 C 
ENDROOT
BRANCH   1   3
ATOM      2  C   GLY A   2       6.421  37.745   3.678  0.00  0.00    +0.243 C 
ATOM      3  N   PHE A   3       6.898  38.256   4.826  0.00  0.00    -0.297 N 
ATOM      4  H   PHE A   3       7.245  39.236   4.809  0.00  0.00    +0.150 HD
ATOM      5  O   GLY A   2       5.944  36.607   3.572  0.00  0.00    -0.273 OA
BRANCH   2   6
ATOM      6  CA  GLY A   2       6.464  38.650   2.459  0.00  0.00    +0.176 C 
BRANCH   6   9
ATOM      7  C   SER A   1       8.862  38.465   2.023  0.00  0.00    +0.241 C 
ATOM      8  O   SER A   1       8.873  37.278   2.305  0.00  0.00    -0.274 OA
ATOM      9  N   GLY A   2       7.782  39.235   2.149  0.00  0.00    -0.295 N 
ATOM     10  H   GLY A   2       7.870  40.264   2.027  0.00  0.00    +0.150 HD
BRANCH   7  11
ATOM     11  CA  SER A   1      10.126  39.139   1.551  0.00  0.00    +0.174 C 
BRANCH  11  12
ATOM     12  N   SER A   1      11.255  38.770   2.396  0.00  0.00    -0.236 NA
ATOM     13  H   SER A   1      11.172  37.978   3.065  0.00  0.00    +0.142 HD
ENDBRANCH  11  12
BRANCH  11  14
ATOM     14  CB  SER A   1      10.404  38.778   0.098  0.00  0.00    +0.163 C 
BRANCH  14  15
ATOM     15  OG  SER A   1       9.386  39.241  -0.748  0.00  0.00    -0.380 OA
ATOM     16  H   SER A   1       9.596  38.991  -1.683  0.00  0.00    +0.211 HD
ENDBRANCH  14  15
ENDBRANCH  11  14
ENDBRANCH   7  11
ENDBRANCH   6   9
ENDBRANCH   2   6
ENDBRANCH   1   3
BRANCH   1  17
ATOM     17  C   PHE A   3       8.023  36.421   6.142  0.00  0.00    +0.241 C 
ATOM     18  O   PHE A   3       8.152  35.742   7.164  0.00  0.00    -0.273 OA
ATOM     19  N   CYS A   4       8.724  36.195   5.030  0.00  0.00    -0.297 N 
ATOM     20  H   CYS A   4       8.569  36.818   4.212  0.00  0.00    +0.150 HD
BRANCH  19  21
ATOM     21  CA  CYS A   4       9.710  35.101   4.906  0.00  0.00    +0.149 C 
BRANCH  21  22
ATOM     22  C   CYS A   4      11.124  35.660   5.086  0.00  0.00    +0.228 C 
ATOM     23  O   CYS A   4      11.563  36.517   4.300  0.00  0.00    -0.286 OA
ENDBRANCH  21  22
BRANCH  21  24
ATOM     24  CB  CYS A   4       9.608  34.472   3.515  0.00  0.00    +0.096 C 
ATOM     25  SG  CYS A   4       7.997  33.758   3.182  0.00  0.00    -0.080 S 
ENDBRANCH  21  24
ENDBRANCH  19  21
ENDBRANCH   1  17
BRANCH   1  26
ATOM     26  CB  PHE A   3       5.622  36.911   6.513  0.00  0.00    +0.055 C 
BRANCH  26  27
ATOM     27  CG  PHE A   3       4.438  37.852   6.435  0.00  0.00    -0.020 A 
ATOM     28  CD2 PHE A   3       4.585  39.214   6.630  0.00  0.00    -0.004 A 
ATOM     29  CE2 PHE A   3       3.489  40.081   6.548  0.00  0.00    -0.000 A 
ATOM     30  CZ  PHE A   3       2.234  39.576   6.293  0.00  0.00    -0.000 A 
ATOM     31  CE1 PHE A   3       2.061  38.207   6.124  0.00  0.00    -0.000 A 
ATOM     32  CD1 PHE A   3       3.164  37.350   6.191  0.00  0.00    -0.004 A 
ENDBRANCH  26  27
ENDBRANCH   1  26
TORSDOF 13
REMARK  Name = ../refined-set-2016/3mz6/3mz6_pocket.pdb
REMARK  108 active torsions:
REMARK  status: ('A' for Active; 'I' for Inactive)
REMARK    1  A    between atoms: _1  and  _3
REMARK    2  A    between atoms: _3  and  _4
REMARK    3  A    between atoms: _3  and  _6
REMARK    4  A    between atoms: _6  and  _7
REMARK    5  A    between atoms: _7  and  _8
REMARK    6  A    between atoms: _8  and  _9
REMARK    7  A    between atoms: _18  and  _20
REMARK    8  A    between atoms: _20  and  _21
REMARK    9  A    between atoms: _20  and  _23
REMARK   10  A    between atoms: _23  and  _24
REMARK   11  A    between atoms: _29  and  _30
REMARK   12  A    between atoms: _32  and  _34
REMARK   13  A    between atoms: _34  and  _35
REMARK   14  A    between atoms: _34  and  _37
REMARK   15  A    between atoms: _37  and  _38
REMARK   16  A    between atoms: _41  and  _43
REMARK   17  A    between atoms: _43  and  _44
REMARK   18  A    between atoms: _46  and  _48
REMARK   19  A    between atoms: _48  and  _49
REMARK   20  A    between atoms: _48  and  _51
REMARK   21  A    between atoms: _51  and  _52
REMARK   22  A    between atoms: _62  and  _64
REMARK   23  A    between atoms: _64  and  _65
REMARK   24  A    between atoms: _64  and  _67
REMARK   25  A    between atoms: _67  and  _68
REMARK   26  A    between atoms: _73  and  _75
REMARK   27  A    between atoms: _75  and  _76
REMARK   28  A    between atoms: _75  and  _78
REMARK   29  A    between atoms: _78  and  _79
REMARK   30  A    between atoms: _84  and  _86
REMARK   31  A    between atoms: _86  and  _87
REMARK   32  A    between atoms: _86  and  _89
REMARK   33  A    between atoms: _89  and  _90
REMARK   34  A    between atoms: _92  and  _94
REMARK   35  A    between atoms: _94  and  _95
REMARK   36  A    between atoms: _97  and  _99
REMARK   37  A    between atoms: _99  and  _100
REMARK   38  A    between atoms: _99  and  _102
REMARK   39  A    between atoms: _102  and  _103
REMARK   40  A    between atoms: _109  and  _111
REMARK   41  A    between atoms: _111  and  _112
REMARK   42  A    between atoms: _111  and  _114
REMARK   43  A    between atoms: _116  and  _118
REMARK   44  A    between atoms: _118  and  _119
REMARK   45  A    between atoms: _118  and  _121
REMARK   46  A    between atoms: _121  and  _122
REMARK   47  A    between atoms: _125  and  _127
REMARK   48  A    between atoms: _136  and  _139
REMARK   49  A    between atoms: _139  and  _140
REMARK   50  A    between atoms: _145  and  _146
REMARK   51  A    between atoms: _154  and  _156
REMARK   52  A    between atoms: _156  and  _157
REMARK   53  A    between atoms: _156  and  _159
REMARK   54  A    between atoms: _159  and  _160
REMARK   55  A    between atoms: _165  and  _167
REMARK   56  A    between atoms: _167  and  _168
REMARK   57  A    between atoms: _170  and  _172
REMARK   58  A    between atoms: _172  and  _173
REMARK   59  A    between atoms: _172  and  _175
REMARK   60  A    between atoms: _175  and  _176
REMARK   61  A    between atoms: _179  and  _181
REMARK   62  A    between atoms: _181  and  _182
REMARK   63  A    between atoms: _184  and  _186
REMARK   64  A    between atoms: _186  and  _187
REMARK   65  A    between atoms: _186  and  _189
REMARK   66  A    between atoms: _189  and  _190
REMARK   67  A    between atoms: _196  and  _198
REMARK   68  A    between atoms: _198  and  _199
REMARK   69  A    between atoms: _198  and  _201
REMARK   70  A    between atoms: _201  and  _202
REMARK   71  A    between atoms: _209  and  _210
REMARK   72  A    between atoms: _215  and  _217
REMARK   73  A    between atoms: _217  and  _218
REMARK   74  A    between atoms: _217  and  _220
REMARK   75  A    between atoms: _220  and  _221
REMARK   76  A    between atoms: _221  and  _222
REMARK   77  A    between atoms: _227  and  _229
REMARK   78  A    between atoms: _229  and  _230
REMARK   79  A    between atoms: _232  and  _234
REMARK   80  A    between atoms: _234  and  _235
REMARK   81  A    between atoms: _238  and  _240
REMARK   82  A    between atoms: _240  and  _241
REMARK   83  A    between atoms: _240  and  _243
REMARK   84  A    between atoms: _243  and  _244
REMARK   85  A    between atoms: _244  and  _246
REMARK   86  A    between atoms: _246  and  FE_299
REMARK   87  A    between atoms: _247  and  _249
REMARK   88  A    between atoms: _249  and  _250
REMARK   89  A    between atoms: _249  and  _252
REMARK   90  A    between atoms: _252  and  _253
REMARK   91  A    between atoms: _256  and  _258
REMARK   92  A    between atoms: _258  and  _259
REMARK   93  A    between atoms: _258  and  _261
REMARK   94  A    between atoms: _261  and  _262
REMARK   95  A    between atoms: _262  and  _263
REMARK   96  A    between atoms: _265  and  _267
REMARK   97  A    between atoms: _267  and  _268
REMARK   98  A    between atoms: _270  and  _272
REMARK   99  A    between atoms: _272  and  _273
REMARK  100  A    between atoms: _275  and  _277
REMARK  101  A    between atoms: _277  and  _278
REMARK  102  A    between atoms: _280  and  _282
REMARK  103  A    between atoms: _282  and  _283
REMARK  104  A    between atoms: _285  and  _287
REMARK  105  A    between atoms: _287  and  _288
REMARK  106  A    between atoms: _287  and  _290
REMARK  107  A    between atoms: _290  and  _291
REMARK  108  A    between atoms: _296  and  _297
REMARK                            x       y       z     vdW  Elec       q    Type
REMARK                         _______ _______ _______ _____ _____    ______ ____
ROOT
ATOM      1  CA  ASP A   1       3.382  25.136  -4.312  0.00  0.00    +0.144 C 
ENDROOT
BRANCH   1   2
ATOM      2  N   ASP A   1       3.721  24.061  -5.262  0.00  0.00    -0.239 NA
ATOM      3  H   ASP A   1       3.480  24.159  -6.269  0.00  0.00    +0.142 HD
ENDBRANCH   1   2
BRANCH   1   4
ATOM      4  C   ASP A   1       1.916  25.430  -4.407  0.00  0.00    +0.225 C 
ATOM      5  O   ASP A   1       1.456  26.025  -5.382  0.00  0.00    -0.287 OA
ENDBRANCH   1   4
BRANCH   1   6
ATOM      6  CB  ASP A   1       4.266  26.364  -4.566  0.00  0.00    +0.139 C 
BRANCH   6   7
ATOM      7  CG  ASP A   1       4.120  27.448  -3.487  0.00  0.00    +0.367 C 
ATOM      8  OD2 ASP A   1       2.976  27.743  -3.038  0.00  0.00    -0.246 OA
ATOM      9  OD1 ASP A   1       5.166  27.988  -3.075  0.00  0.00    -0.246 OA
ENDBRANCH   6   7
ENDBRANCH   1   6
TORSDOF 4
REMARK  Name = ../refined-set-2016/3mz6/3mz6_pocket.pdb
REMARK  108 active torsions:
REMARK  status: ('A' for Active; 'I' for Inactive)
REMARK    1  A    between atoms: _1  and  _3
REMARK    2  A    between atoms: _3  and  _4
REMARK    3  A    between atoms: _3  and  _6
REMARK    4  A    between atoms: _6  and  _7
REMARK    5  A    between atoms: _7  and  _8
REMARK    6  A    between atoms: _8  and  _9
REMARK    7  A    between atoms: _18  and  _20
REMARK    8  A    between atoms: _20  and  _21
REMARK    9  A    between atoms: _20  and  _23
REMARK   10  A    between atoms: _23  and  _24
REMARK   11  A    between atoms: _29  and  _30
REMARK   12  A    between atoms: _32  and  _34
REMARK   13  A    between atoms: _34  and  _35
REMARK   14  A    between atoms: _34  and  _37
REMARK   15  A    between atoms: _37  and  _38
REMARK   16  A    between atoms: _41  and  _43
REMARK   17  A    between atoms: _43  and  _44
REMARK   18  A    between atoms: _46  and  _48
REMARK   19  A    between atoms: _48  and  _49
REMARK   20  A    between atoms: _48  and  _51
REMARK   21  A    between atoms: _51  and  _52
REMARK   22  A    between atoms: _62  and  _64
REMARK   23  A    between atoms: _64  and  _65
REMARK   24  A    between atoms: _64  and  _67
REMARK   25  A    between atoms: _67  and  _68
REMARK   26  A    between atoms: _73  and  _75
REMARK   27  A    between atoms: _75  and  _76
REMARK   28  A    between atoms: _75  and  _78
REMARK   29  A    between atoms: _78  and  _79
REMARK   30  A    between atoms: _84  and  _86
REMARK   31  A    between atoms: _86  and  _87
REMARK   32  A    between atoms: _86  and  _89
REMARK   33  A    between atoms: _89  and  _90
REMARK   34  A    between atoms: _92  and  _94
REMARK   35  A    between atoms: _94  and  _95
REMARK   36  A    between atoms: _97  and  _99
REMARK   37  A    between atoms: _99  and  _100
REMARK   38  A    between atoms: _99  and  _102
REMARK   39  A    between atoms: _102  and  _103
REMARK   40  A    between atoms: _109  and  _111
REMARK   41  A    between atoms: _111  and  _112
REMARK   42  A    between atoms: _111  and  _114
REMARK   43  A    between atoms: _116  and  _118
REMARK   44  A    between atoms: _118  and  _119
REMARK   45  A    between atoms: _118  and  _121
REMARK   46  A    between atoms: _121  and  _122
REMARK   47  A    between atoms: _125  and  _127
REMARK   48  A    between atoms: _136  and  _139
REMARK   49  A    between atoms: _139  and  _140
REMARK   50  A    between atoms: _145  and  _146
REMARK   51  A    between atoms: _154  and  _156
REMARK   52  A    between atoms: _156  and  _157
REMARK   53  A    between atoms: _156  and  _159
REMARK   54  A    between atoms: _159  and  _160
REMARK   55  A    between atoms: _165  and  _167
REMARK   56  A    between atoms: _167  and  _168
REMARK   57  A    between atoms: _170  and  _172
REMARK   58  A    between atoms: _172  and  _173
REMARK   59  A    between atoms: _172  and  _175
REMARK   60  A    between atoms: _175  and  _176
REMARK   61  A    between atoms: _179  and  _181
REMARK   62  A    between atoms: _181  and  _182
REMARK   63  A    between atoms: _184  and  _186
REMARK   64  A    between atoms: _186  and  _187
REMARK   65  A    between atoms: _186  and  _189
REMARK   66  A    between atoms: _189  and  _190
REMARK   67  A    between atoms: _196  and  _198
REMARK   68  A    between atoms: _198  and  _199
REMARK   69  A    between atoms: _198  and  _201
REMARK   70  A    between atoms: _201  and  _202
REMARK   71  A    between atoms: _209  and  _210
REMARK   72  A    between atoms: _215  and  _217
REMARK   73  A    between atoms: _217  and  _218
REMARK   74  A    between atoms: _217  and  _220
REMARK   75  A    between atoms: _220  and  _221
REMARK   76  A    between atoms: _221  and  _222
REMARK   77  A    between atoms: _227  and  _229
REMARK   78  A    between atoms: _229  and  _230
REMARK   79  A    between atoms: _232  and  _234
REMARK   80  A    between atoms: _234  and  _235
REMARK   81  A    between atoms: _238  and  _240
REMARK   82  A    between atoms: _240  and  _241
REMARK   83  A    between atoms: _240  and  _243
REMARK   84  A    between atoms: _243  and  _244
REMARK   85  A    between atoms: _244  and  _246
REMARK   86  A    between atoms: _246  and  FE_299
REMARK   87  A    between atoms: _247  and  _249
REMARK   88  A    between atoms: _249  and  _250
REMARK   89  A    between atoms: _249  and  _252
REMARK   90  A    between atoms: _252  and  _253
REMARK   91  A    between atoms: _256  and  _258
REMARK   92  A    between atoms: _258  and  _259
REMARK   93  A    between atoms: _258  and  _261
REMARK   94  A    between atoms: _261  and  _262
REMARK   95  A    between atoms: _262  and  _263
REMARK   96  A    between atoms: _265  and  _267
REMARK   97  A    between atoms: _267  and  _268
REMARK   98  A    between atoms: _270  and  _272
REMARK   99  A    between atoms: _272  and  _273
REMARK  100  A    between atoms: _275  and  _277
REMARK  101  A    between atoms: _277  and  _278
REMARK  102  A    between atoms: _280  and  _282
REMARK  103  A    between atoms: _282  and  _283
REMARK  104  A    between atoms: _285  and  _287
REMARK  105  A    between atoms: _287  and  _288
REMARK  106  A    between atoms: _287  and  _290
REMARK  107  A    between atoms: _290  and  _291
REMARK  108  A    between atoms: _296  and  _297
REMARK                            x       y       z     vdW  Elec       q    Type
REMARK                         _______ _______ _______ _____ _____    ______ ____
ROOT
ATOM      1  C   UNK A   1      -0.160  28.394  -1.237  0.00  0.00    +0.000 C 
ATOM      2  C   UNK A   1       1.157  29.097  -0.902  0.00  0.00    +0.000 C 
ATOM      3  C   UNK A   1       1.023  30.114   0.240  0.00  0.00    +0.000 C 
ATOM      4  O   UNK A   1       1.351  29.764   1.400  0.00  0.00    +0.000 OA
ATOM      5  O   UNK A   1       0.633  31.262  -0.058  0.00  0.00    +0.000 OA
ATOM      6 FE   UNK A   1       0.336  32.778   1.176  0.00  0.00    +0.000 Fe
ATOM      7  N   UNK A   1      -0.194  34.410  -0.111  0.00  0.00    +0.000 N 
ATOM      8  C   UNK A   1      -0.973  35.350   0.396  0.00  0.00    +0.000 A 
ATOM      9  N   UNK A   1      -0.933  36.399  -0.400  0.00  0.00    +0.000 NA
ATOM     10  C   UNK A   1      -0.093  36.125  -1.456  0.00  0.00    +0.000 A 
ATOM     11  C   UNK A   1       0.402  34.885  -1.261  0.00  0.00    +0.000 A 
ATOM     12  C   UNK A   1       1.326  34.049  -2.094  0.00  0.00    +0.000 C 
ATOM     13  C   UNK A   1       0.590  33.249  -3.191  0.00  0.00    +0.000 C 
ATOM     14  N   UNK A   1      -0.346  32.311  -2.571  0.00  0.00    +0.000 N 
ATOM     15  H   UNK A   1      -0.056  31.803  -1.711  0.00  0.00    +0.000 HD
ATOM     16  C   LEU A   2      -1.566  32.087  -3.079  0.00  0.00    +0.000 C 
ATOM     17  CA  LEU A   2      -2.542  31.247  -2.216  0.00  0.00    +0.000 C 
ATOM     18  N   LEU A   2      -1.849  30.175  -1.487  0.00  0.00    +0.000 N 
ATOM     19  H   LEU A   2      -1.983  30.099  -0.459  0.00  0.00    +0.000 HD
ATOM     20  O   LEU A   2      -1.907  32.490  -4.186  0.00  0.00    +0.000 OA
ATOM     21  C   UNK A   1      -1.053  29.295  -2.099  0.00  0.00    +0.000 C 
ATOM     22  O   UNK A   1      -0.943  29.253  -3.335  0.00  0.00    +0.000 OA
ENDROOT
BRANCH  13  23
ATOM     23  C   UNK A   1       1.593  32.536  -4.077  0.00  0.00    +0.000 C 
ATOM     24  O   UNK A   1       1.991  31.396  -3.805  0.00  0.00    +0.000 OA
ATOM     25  N   HIS A   4       2.021  33.211  -5.145  0.00  0.00    +0.000 N 
ATOM     26  H   HIS A   4       1.608  34.140  -5.363  0.00  0.00    +0.000 HD
BRANCH  25  27
ATOM     27  CA  HIS A   4       3.066  32.662  -6.018  0.00  0.00    +0.000 C 
BRANCH  27  28
ATOM     28  C   HIS A   4       4.350  32.334  -5.242  0.00  0.00    +0.000 C 
ATOM     29  O   HIS A   4       4.847  33.164  -4.501  0.00  0.00    +0.000 OA
ATOM     30  N   GLY A   5       4.907  31.132  -5.422  0.00  0.00    +0.000 N 
ATOM     31  H   GLY A   5       4.447  30.435  -6.043  0.00  0.00    +0.000 HD
BRANCH  30  32
ATOM     32  CA  GLY A   5       6.165  30.792  -4.747  0.00  0.00    +0.000 C 
BRANCH  32  33
ATOM     33  C   GLY A   5       7.388  31.381  -5.483  0.00  0.00    +0.000 C 
ATOM     34  N   ASP A   6       7.422  32.705  -5.584  0.00  0.00    +0.000 N 
ATOM     35  H   ASP A   6       6.674  33.261  -5.121  0.00  0.00    +0.000 HD
ATOM     36  O   GLY A   5       8.235  30.648  -5.984  0.00  0.00    +0.000 OA
BRANCH  34  37
ATOM     37  CA  ASP A   6       8.476  33.417  -6.325  0.00  0.00    +0.000 C 
BRANCH  37  38
ATOM     38  C   ASP A   6       9.916  33.176  -5.829  0.00  0.00    +0.000 C 
ATOM     39  O   ASP A   6      10.829  33.102  -6.641  0.00  0.00    +0.000 OA
ENDBRANCH  37  38
BRANCH  37  40
ATOM     40  CB  ASP A   6       8.164  34.917  -6.384  0.00  0.00    +0.000 C 
BRANCH  40  41
ATOM     41  CG  ASP A   6       8.142  35.569  -5.017  0.00  0.00    +0.000 C 
ATOM     42  OD2 ASP A   6       7.910  34.892  -3.971  0.00  0.00    +0.000 OA
ATOM     43  OD1 ASP A   6       8.330  36.798  -4.992  0.00  0.00    +0.000 OA
ENDBRANCH  40  41
ENDBRANCH  37  40
ENDBRANCH  34  37
ENDBRANCH  32  33
ENDBRANCH  30  32
ENDBRANCH  27  28
BRANCH  27  44
ATOM     44  CB  HIS A   4       3.356  33.670  -7.133  0.00  0.00    +0.000 C 
BRANCH  44  45
ATOM     45  CG  HIS A   4       4.471  33.256  -8.036  0.00  0.00    +0.000 A 
ATOM     46  ND1 HIS A   4       5.451  34.127  -8.456  0.00  0.00    +0.000 NA
ATOM     47  CE1 HIS A   4       6.265  33.500  -9.289  0.00  0.00    +0.000 A 
ATOM     48  NE2 HIS A   4       5.884  32.235  -9.367  0.00  0.00    +0.000 NA
ATOM     49  CD2 HIS A   4       4.750  32.065  -8.611  0.00  0.00    +0.000 A 
ENDBRANCH  44  45
ENDBRANCH  27  44
ENDBRANCH  25  27
ENDBRANCH  13  23
BRANCH   1  50
ATOM     50  N   UNK A   1       0.185  27.186  -1.993  0.00  0.00    +0.000 NA
ATOM     51  H   UNK A   1       1.186  26.952  -2.152  0.00  0.00    +0.000 HD
ENDBRANCH   1  50
BRANCH  17  52
ATOM     52  CB  LEU A   2      -3.256  32.197  -1.231  0.00  0.00    +0.000 C 
BRANCH  52  53
ATOM     53  CG  LEU A   2      -4.125  33.299  -1.835  0.00  0.00    +0.000 C 
ATOM     54  CD2 LEU A   2      -4.614  34.217  -0.752  0.00  0.00    +0.000 C 
ATOM     55  CD1 LEU A   2      -5.307  32.774  -2.741  0.00  0.00    +0.000 C 
ENDBRANCH  52  53
ENDBRANCH  17  52
BRANCH   6  56
ATOM     56  O   UNK A   1      -1.391  32.544   1.979  0.00  0.00    +0.000 OA
BRANCH  56  57
ATOM     57  C   UNK A   1      -2.264  31.630   2.088  0.00  0.00    +0.000 C 
ATOM     58  O   UNK A   1      -2.178  30.528   1.477  0.00  0.00    +0.000 OA
BRANCH  57  59
ATOM     59  C   UNK A   1      -3.481  31.873   3.007  0.00  0.00    +0.000 C 
BRANCH  59  60
ATOM     60  C   UNK A   1      -4.484  30.705   3.006  0.00  0.00    +0.000 C 
BRANCH  60  61
ATOM     61  N   UNK A   1      -3.839  29.433   3.283  0.00  0.00    +0.000 N 
ATOM     62  C   LEU A   2      -4.483  28.468   3.947  0.00  0.00    +0.000 C 
ATOM     63  O   LEU A   2      -5.659  28.597   4.329  0.00  0.00    +0.000 OA
ATOM     64  H   UNK A   1      -2.864  29.271   2.961  0.00  0.00    +0.000 HD
BRANCH  62  65
ATOM     65  CA  LEU A   2      -3.770  27.144   4.096  0.00  0.00    +0.000 C 
ATOM     66  CB  LEU A   2      -4.084  26.520   5.509  0.00  0.00    +0.000 C 
BRANCH  65  67
ATOM     67  N   LEU A   2      -2.316  27.247   3.876  0.00  0.00    +0.000 N 
ATOM     68  H   LEU A   2      -1.716  27.503   4.686  0.00  0.00    +0.000 HD
ATOM     69  C   UNK A   1      -1.720  27.030   2.691  0.00  0.00    +0.000 C 
ATOM     70  O   UNK A   1      -2.333  26.829   1.624  0.00  0.00    +0.000 OA
BRANCH  69  71
ATOM     71  C   UNK A   1      -0.218  27.001   2.694  0.00  0.00    +0.000 C 
BRANCH  71  72
ATOM     72  N   UNK A   1       0.278  25.855   1.928  0.00  0.00    +0.000 NA
ATOM     73  H   UNK A   1       0.949  26.001   1.147  0.00  0.00    +0.000 HD
ENDBRANCH  71  72
ENDBRANCH  69  71
ENDBRANCH  65  67
ENDBRANCH  62  65
ENDBRANCH  60  61
BRANCH  60  74
ATOM     74  C   UNK A   1      -5.358  30.660   1.740  0.00  0.00    +0.000 C 
ATOM     75  O   ACE A   3      -5.950  31.656   1.362  0.00  0.00    +0.000 OA
ENDBRANCH  60  74
ENDBRANCH  59  60
ENDBRANCH  57  59
ENDBRANCH  56  57
ENDBRANCH   6  56
TORSDOF 24
REMARK  Name = ../refined-set-2016/3mz6/3mz6_pocket.pdb
REMARK  108 active torsions:
REMARK  status: ('A' for Active; 'I' for Inactive)
REMARK    1  A    between atoms: _1  and  _3
REMARK    2  A    between atoms: _3  and  _4
REMARK    3  A    between atoms: _3  and  _6
REMARK    4  A    between atoms: _6  and  _7
REMARK    5  A    between atoms: _7  and  _8
REMARK    6  A    between atoms: _8  and  _9
REMARK    7  A    between atoms: _18  and  _20
REMARK    8  A    between atoms: _20  and  _21
REMARK    9  A    between atoms: _20  and  _23
REMARK   10  A    between atoms: _23  and  _24
REMARK   11  A    between atoms: _29  and  _30
REMARK   12  A    between atoms: _32  and  _34
REMARK   13  A    between atoms: _34  and  _35
REMARK   14  A    between atoms: _34  and  _37
REMARK   15  A    between atoms: _37  and  _38
REMARK   16  A    between atoms: _41  and  _43
REMARK   17  A    between atoms: _43  and  _44
REMARK   18  A    between atoms: _46  and  _48
REMARK   19  A    between atoms: _48  and  _49
REMARK   20  A    between atoms: _48  and  _51
REMARK   21  A    between atoms: _51  and  _52
REMARK   22  A    between atoms: _62  and  _64
REMARK   23  A    between atoms: _64  and  _65
REMARK   24  A    between atoms: _64  and  _67
REMARK   25  A    between atoms: _67  and  _68
REMARK   26  A    between atoms: _73  and  _75
REMARK   27  A    between atoms: _75  and  _76
REMARK   28  A    between atoms: _75  and  _78
REMARK   29  A    between atoms: _78  and  _79
REMARK   30  A    between atoms: _84  and  _86
REMARK   31  A    between atoms: _86  and  _87
REMARK   32  A    between atoms: _86  and  _89
REMARK   33  A    between atoms: _89  and  _90
REMARK   34  A    between atoms: _92  and  _94
REMARK   35  A    between atoms: _94  and  _95
REMARK   36  A    between atoms: _97  and  _99
REMARK   37  A    between atoms: _99  and  _100
REMARK   38  A    between atoms: _99  and  _102
REMARK   39  A    between atoms: _102  and  _103
REMARK   40  A    between atoms: _109  and  _111
REMARK   41  A    between atoms: _111  and  _112
REMARK   42  A    between atoms: _111  and  _114
REMARK   43  A    between atoms: _116  and  _118
REMARK   44  A    between atoms: _118  and  _119
REMARK   45  A    between atoms: _118  and  _121
REMARK   46  A    between atoms: _121  and  _122
REMARK   47  A    between atoms: _125  and  _127
REMARK   48  A    between atoms: _136  and  _139
REMARK   49  A    between atoms: _139  and  _140
REMARK   50  A    between atoms: _145  and  _146
REMARK   51  A    between atoms: _154  and  _156
REMARK   52  A    between atoms: _156  and  _157
REMARK   53  A    between atoms: _156  and  _159
REMARK   54  A    between atoms: _159  and  _160
REMARK   55  A    between atoms: _165  and  _167
REMARK   56  A    between atoms: _167  and  _168
REMARK   57  A    between atoms: _170  and  _172
REMARK   58  A    between atoms: _172  and  _173
REMARK   59  A    between atoms: _172  and  _175
REMARK   60  A    between atoms: _175  and  _176
REMARK   61  A    between atoms: _179  and  _181
REMARK   62  A    between atoms: _181  and  _182
REMARK   63  A    between atoms: _184  and  _186
REMARK   64  A    between atoms: _186  and  _187
REMARK   65  A    between atoms: _186  and  _189
REMARK   66  A    between atoms: _189  and  _190
REMARK   67  A    between atoms: _196  and  _198
REMARK   68  A    between atoms: _198  and  _199
REMARK   69  A    between atoms: _198  and  _201
REMARK   70  A    between atoms: _201  and  _202
REMARK   71  A    between atoms: _209  and  _210
REMARK   72  A    between atoms: _215  and  _217
REMARK   73  A    between atoms: _217  and  _218
REMARK   74  A    between atoms: _217  and  _220
REMARK   75  A    between atoms: _220  and  _221
REMARK   76  A    between atoms: _221  and  _222
REMARK   77  A    between atoms: _227  and  _229
REMARK   78  A    between atoms: _229  and  _230
REMARK   79  A    between atoms: _232  and  _234
REMARK   80  A    between atoms: _234  and  _235
REMARK   81  A    between atoms: _238  and  _240
REMARK   82  A    between atoms: _240  and  _241
REMARK   83  A    between atoms: _240  and  _243
REMARK   84  A    between atoms: _243  and  _244
REMARK   85  A    between atoms: _244  and  _246
REMARK   86  A    between atoms: _246  and  FE_299
REMARK   87  A    between atoms: _247  and  _249
REMARK   88  A    between atoms: _249  and  _250
REMARK   89  A    between atoms: _249  and  _252
REMARK   90  A    between atoms: _252  and  _253
REMARK   91  A    between atoms: _256  and  _258
REMARK   92  A    between atoms: _258  and  _259
REMARK   93  A    between atoms: _258  and  _261
REMARK   94  A    between atoms: _261  and  _262
REMARK   95  A    between atoms: _262  and  _263
REMARK   96  A    between atoms: _265  and  _267
REMARK   97  A    between atoms: _267  and  _268
REMARK   98  A    between atoms: _270  and  _272
REMARK   99  A    between atoms: _272  and  _273
REMARK  100  A    between atoms: _275  and  _277
REMARK  101  A    between atoms: _277  and  _278
REMARK  102  A    between atoms: _280  and  _282
REMARK  103  A    between atoms: _282  and  _283
REMARK  104  A    between atoms: _285  and  _287
REMARK  105  A    between atoms: _287  and  _288
REMARK  106  A    between atoms: _287  and  _290
REMARK  107  A    between atoms: _290  and  _291
REMARK  108  A    between atoms: _296  and  _297
REMARK                            x       y       z     vdW  Elec       q    Type
REMARK                         _______ _______ _______ _____ _____    ______ ____
ROOT
ATOM      1  C   PHE A   2      -0.591  40.450  -5.376  0.00  0.00    +0.241 C 
ATOM      2  N   PHE A   3      -0.091  40.412  -4.147  0.00  0.00    -0.297 N 
ATOM      3  H   PHE A   3      -0.703  40.716  -3.363  0.00  0.00    +0.150 HD
ATOM      4  O   PHE A   2       0.034  40.074  -6.393  0.00  0.00    -0.273 OA
ENDROOT
BRANCH   1   5
ATOM      5  CA  PHE A   2      -1.991  41.045  -5.480  0.00  0.00    +0.153 C 
BRANCH   5   8
ATOM      6  C   GLY A   1      -1.928  43.420  -5.996  0.00  0.00    +0.240 C 
ATOM      7  O   GLY A   1      -1.811  43.721  -4.815  0.00  0.00    -0.274 OA
ATOM      8  N   PHE A   2      -1.983  42.155  -6.429  0.00  0.00    -0.297 N 
ATOM      9  H   PHE A   2      -2.020  41.961  -7.450  0.00  0.00    +0.150 HD
BRANCH   6  10
ATOM     10  CA  GLY A   1      -2.052  44.521  -7.041  0.00  0.00    +0.169 C 
BRANCH  10  11
ATOM     11  N   GLY A   1      -2.102  44.055  -8.410  0.00  0.00    -0.236 NA
ATOM     12  H   GLY A   1      -1.234  43.955  -8.974  0.00  0.00    +0.142 HD
ENDBRANCH  10  11
ENDBRANCH   6  10
ENDBRANCH   5   8
BRANCH   5  13
ATOM     13  CB  PHE A   2      -3.007  39.954  -5.871  0.00  0.00    +0.055 C 
BRANCH  13  14
ATOM     14  CG  PHE A   2      -3.152  38.877  -4.822  0.00  0.00    -0.020 A 
ATOM     15  CD2 PHE A   2      -3.904  39.107  -3.670  0.00  0.00    -0.004 A 
ATOM     16  CE2 PHE A   2      -4.008  38.116  -2.658  0.00  0.00    -0.000 A 
ATOM     17  CZ  PHE A   2      -3.296  36.936  -2.776  0.00  0.00    -0.000 A 
ATOM     18  CE1 PHE A   2      -2.510  36.707  -3.916  0.00  0.00    -0.000 A 
ATOM     19  CD1 PHE A   2      -2.428  37.701  -4.921  0.00  0.00    -0.004 A 
ENDBRANCH  13  14
ENDBRANCH   5  13
ENDBRANCH   1   5
BRANCH   2  20
ATOM     20  CA  PHE A   3       1.280  39.965  -3.822  0.00  0.00    +0.153 C 
BRANCH  20  21
ATOM     21  C   PHE A   3       1.619  38.518  -4.305  0.00  0.00    +0.244 C 
ATOM     22  O   PHE A   3       0.853  37.617  -4.100  0.00  0.00    -0.273 OA
ATOM     23  N   PRO A   4       2.832  38.281  -4.836  0.00  0.00    -0.273 N 
ATOM     24  CD  PRO A   4       3.324  36.888  -4.931  0.00  0.00    +0.094 C 
ATOM     25  CG  PRO A   4       4.764  37.039  -5.402  0.00  0.00    +0.024 C 
ATOM     26  CB  PRO A   4       5.183  38.429  -4.907  0.00  0.00    +0.030 C 
ATOM     27  CA  PRO A   4       3.916  39.267  -5.075  0.00  0.00    +0.140 C 
BRANCH  27  28
ATOM     28  C   PRO A   4       3.875  39.883  -6.474  0.00  0.00    +0.227 C 
ATOM     29  O   PRO A   4       4.753  40.666  -6.802  0.00  0.00    -0.286 OA
ENDBRANCH  27  28
ENDBRANCH  20  21
BRANCH  20  30
ATOM     30  CB  PHE A   3       1.474  40.075  -2.297  0.00  0.00    +0.055 C 
BRANCH  30  31
ATOM     31  CG  PHE A   3       2.900  39.867  -1.848  0.00  0.00    -0.020 A 
ATOM     32  CD2 PHE A   3       3.359  38.606  -1.485  0.00  0.00    -0.004 A 
ATOM     33  CE2 PHE A   3       4.717  38.403  -1.151  0.00  0.00    -0.000 A 
ATOM     34  CZ  PHE A   3       5.591  39.494  -1.113  0.00  0.00    -0.000 A 
ATOM     35  CE1 PHE A   3       5.123  40.768  -1.485  0.00  0.00    -0.000 A 
ATOM     36  CD1 PHE A   3       3.796  40.943  -1.830  0.00  0.00    -0.004 A 
ENDBRANCH  30  31
ENDBRANCH  20  30
ENDBRANCH   2  20
TORSDOF 11
REMARK  Name = ../refined-set-2016/3mz6/3mz6_pocket.pdb
REMARK  108 active torsions:
REMARK  status: ('A' for Active; 'I' for Inactive)
REMARK    1  A    between atoms: _1  and  _3
REMARK    2  A    between atoms: _3  and  _4
REMARK    3  A    between atoms: _3  and  _6
REMARK    4  A    between atoms: _6  and  _7
REMARK    5  A    between atoms: _7  and  _8
REMARK    6  A    between atoms: _8  and  _9
REMARK    7  A    between atoms: _18  and  _20
REMARK    8  A    between atoms: _20  and  _21
REMARK    9  A    between atoms: _20  and  _23
REMARK   10  A    between atoms: _23  and  _24
REMARK   11  A    between atoms: _29  and  _30
REMARK   12  A    between atoms: _32  and  _34
REMARK   13  A    between atoms: _34  and  _35
REMARK   14  A    between atoms: _34  and  _37
REMARK   15  A    between atoms: _37  and  _38
REMARK   16  A    between atoms: _41  and  _43
REMARK   17  A    between atoms: _43  and  _44
REMARK   18  A    between atoms: _46  and  _48
REMARK   19  A    between atoms: _48  and  _49
REMARK   20  A    between atoms: _48  and  _51
REMARK   21  A    between atoms: _51  and  _52
REMARK   22  A    between atoms: _62  and  _64
REMARK   23  A    between atoms: _64  and  _65
REMARK   24  A    between atoms: _64  and  _67
REMARK   25  A    between atoms: _67  and  _68
REMARK   26  A    between atoms: _73  and  _75
REMARK   27  A    between atoms: _75  and  _76
REMARK   28  A    between atoms: _75  and  _78
REMARK   29  A    between atoms: _78  and  _79
REMARK   30  A    between atoms: _84  and  _86
REMARK   31  A    between atoms: _86  and  _87
REMARK   32  A    between atoms: _86  and  _89
REMARK   33  A    between atoms: _89  and  _90
REMARK   34  A    between atoms: _92  and  _94
REMARK   35  A    between atoms: _94  and  _95
REMARK   36  A    between atoms: _97  and  _99
REMARK   37  A    between atoms: _99  and  _100
REMARK   38  A    between atoms: _99  and  _102
REMARK   39  A    between atoms: _102  and  _103
REMARK   40  A    between atoms: _109  and  _111
REMARK   41  A    between atoms: _111  and  _112
REMARK   42  A    between atoms: _111  and  _114
REMARK   43  A    between atoms: _116  and  _118
REMARK   44  A    between atoms: _118  and  _119
REMARK   45  A    between atoms: _118  and  _121
REMARK   46  A    between atoms: _121  and  _122
REMARK   47  A    between atoms: _125  and  _127
REMARK   48  A    between atoms: _136  and  _139
REMARK   49  A    between atoms: _139  and  _140
REMARK   50  A    between atoms: _145  and  _146
REMARK   51  A    between atoms: _154  and  _156
REMARK   52  A    between atoms: _156  and  _157
REMARK   53  A    between atoms: _156  and  _159
REMARK   54  A    between atoms: _159  and  _160
REMARK   55  A    between atoms: _165  and  _167
REMARK   56  A    between atoms: _167  and  _168
REMARK   57  A    between atoms: _170  and  _172
REMARK   58  A    between atoms: _172  and  _173
REMARK   59  A    between atoms: _172  and  _175
REMARK   60  A    between atoms: _175  and  _176
REMARK   61  A    between atoms: _179  and  _181
REMARK   62  A    between atoms: _181  and  _182
REMARK   63  A    between atoms: _184  and  _186
REMARK   64  A    between atoms: _186  and  _187
REMARK   65  A    between atoms: _186  and  _189
REMARK   66  A    between atoms: _189  and  _190
REMARK   67  A    between atoms: _196  and  _198
REMARK   68  A    between atoms: _198  and  _199
REMARK   69  A    between atoms: _198  and  _201
REMARK   70  A    between atoms: _201  and  _202
REMARK   71  A    between atoms: _209  and  _210
REMARK   72  A    between atoms: _215  and  _217
REMARK   73  A    between atoms: _217  and  _218
REMARK   74  A    between atoms: _217  and  _220
REMARK   75  A    between atoms: _220  and  _221
REMARK   76  A    between atoms: _221  and  _222
REMARK   77  A    between atoms: _227  and  _229
REMARK   78  A    between atoms: _229  and  _230
REMARK   79  A    between atoms: _232  and  _234
REMARK   80  A    between atoms: _234  and  _235
REMARK   81  A    between atoms: _238  and  _240
REMARK   82  A    between atoms: _240  and  _241
REMARK   83  A    between atoms: _240  and  _243
REMARK   84  A    between atoms: _243  and  _244
REMARK   85  A    between atoms: _244  and  _246
REMARK   86  A    between atoms: _246  and  FE_299
REMARK   87  A    between atoms: _247  and  _249
REMARK   88  A    between atoms: _249  and  _250
REMARK   89  A    between atoms: _249  and  _252
REMARK   90  A    between atoms: _252  and  _253
REMARK   91  A    between atoms: _256  and  _258
REMARK   92  A    between atoms: _258  and  _259
REMARK   93  A    between atoms: _258  and  _261
REMARK   94  A    between atoms: _261  and  _262
REMARK   95  A    between atoms: _262  and  _263
REMARK   96  A    between atoms: _265  and  _267
REMARK   97  A    between atoms: _267  and  _268
REMARK   98  A    between atoms: _270  and  _272
REMARK   99  A    between atoms: _272  and  _273
REMARK  100  A    between atoms: _275  and  _277
REMARK  101  A    between atoms: _277  and  _278
REMARK  102  A    between atoms: _280  and  _282
REMARK  103  A    between atoms: _282  and  _283
REMARK  104  A    between atoms: _285  and  _287
REMARK  105  A    between atoms: _287  and  _288
REMARK  106  A    between atoms: _287  and  _290
REMARK  107  A    between atoms: _290  and  _291
REMARK  108  A    between atoms: _296  and  _297
REMARK                            x       y       z     vdW  Elec       q    Type
REMARK                         _______ _______ _______ _____ _____    ______ ____
ROOT
ATOM      1  CB  GLN A   1       4.720  24.746  -0.497  0.00  0.00    +0.035 C 
ENDROOT
BRANCH   1   2
ATOM      2  CA  GLN A   1       4.044  23.459   0.053  0.00  0.00    +0.134 C 
BRANCH   2   3
ATOM      3  N   GLN A   1       4.364  22.324  -0.796  0.00  0.00    -0.239 NA
ATOM      4  H   GLN A   1       4.247  22.432  -1.824  0.00  0.00    +0.142 HD
ENDBRANCH   2   3
BRANCH   2   5
ATOM      5  C   GLN A   1       2.524  23.592   0.060  0.00  0.00    +0.224 C 
ATOM      6  O   GLN A   1       1.917  23.774  -0.988  0.00  0.00    -0.287 OA
ENDBRANCH   2   5
ENDBRANCH   1   2
BRANCH   1   7
ATOM      7  CG  GLN A   1       4.946  25.860   0.543  0.00  0.00    +0.087 C 
BRANCH   7   8
ATOM      8  CD  GLN A   1       3.731  26.772   0.731  0.00  0.00    +0.219 C 
ATOM      9  NE2 GLN A   1       3.968  27.971   1.283  0.00  0.00    -0.329 N 
ATOM     10 HE21 GLN A   1       4.935  28.232   1.565  0.00  0.00    +0.145 HD
ATOM     11 HE22 GLN A   1       3.185  28.640   1.430  0.00  0.00    +0.145 HD
ATOM     12  OE1 GLN A   1       2.599  26.421   0.382  0.00  0.00    -0.275 OA
ENDBRANCH   7   8
ENDBRANCH   1   7
TORSDOF 5
REMARK  Name = ../refined-set-2016/3mz6/3mz6_pocket.pdb
REMARK  108 active torsions:
REMARK  status: ('A' for Active; 'I' for Inactive)
REMARK    1  A    between atoms: _1  and  _3
REMARK    2  A    between atoms: _3  and  _4
REMARK    3  A    between atoms: _3  and  _6
REMARK    4  A    between atoms: _6  and  _7
REMARK    5  A    between atoms: _7  and  _8
REMARK    6  A    between atoms: _8  and  _9
REMARK    7  A    between atoms: _18  and  _20
REMARK    8  A    between atoms: _20  and  _21
REMARK    9  A    between atoms: _20  and  _23
REMARK   10  A    between atoms: _23  and  _24
REMARK   11  A    between atoms: _29  and  _30
REMARK   12  A    between atoms: _32  and  _34
REMARK   13  A    between atoms: _34  and  _35
REMARK   14  A    between atoms: _34  and  _37
REMARK   15  A    between atoms: _37  and  _38
REMARK   16  A    between atoms: _41  and  _43
REMARK   17  A    between atoms: _43  and  _44
REMARK   18  A    between atoms: _46  and  _48
REMARK   19  A    between atoms: _48  and  _49
REMARK   20  A    between atoms: _48  and  _51
REMARK   21  A    between atoms: _51  and  _52
REMARK   22  A    between atoms: _62  and  _64
REMARK   23  A    between atoms: _64  and  _65
REMARK   24  A    between atoms: _64  and  _67
REMARK   25  A    between atoms: _67  and  _68
REMARK   26  A    between atoms: _73  and  _75
REMARK   27  A    between atoms: _75  and  _76
REMARK   28  A    between atoms: _75  and  _78
REMARK   29  A    between atoms: _78  and  _79
REMARK   30  A    between atoms: _84  and  _86
REMARK   31  A    between atoms: _86  and  _87
REMARK   32  A    between atoms: _86  and  _89
REMARK   33  A    between atoms: _89  and  _90
REMARK   34  A    between atoms: _92  and  _94
REMARK   35  A    between atoms: _94  and  _95
REMARK   36  A    between atoms: _97  and  _99
REMARK   37  A    between atoms: _99  and  _100
REMARK   38  A    between atoms: _99  and  _102
REMARK   39  A    between atoms: _102  and  _103
REMARK   40  A    between atoms: _109  and  _111
REMARK   41  A    between atoms: _111  and  _112
REMARK   42  A    between atoms: _111  and  _114
REMARK   43  A    between atoms: _116  and  _118
REMARK   44  A    between atoms: _118  and  _119
REMARK   45  A    between atoms: _118  and  _121
REMARK   46  A    between atoms: _121  and  _122
REMARK   47  A    between atoms: _125  and  _127
REMARK   48  A    between atoms: _136  and  _139
REMARK   49  A    between atoms: _139  and  _140
REMARK   50  A    between atoms: _145  and  _146
REMARK   51  A    between atoms: _154  and  _156
REMARK   52  A    between atoms: _156  and  _157
REMARK   53  A    between atoms: _156  and  _159
REMARK   54  A    between atoms: _159  and  _160
REMARK   55  A    between atoms: _165  and  _167
REMARK   56  A    between atoms: _167  and  _168
REMARK   57  A    between atoms: _170  and  _172
REMARK   58  A    between atoms: _172  and  _173
REMARK   59  A    between atoms: _172  and  _175
REMARK   60  A    between atoms: _175  and  _176
REMARK   61  A    between atoms: _179  and  _181
REMARK   62  A    between atoms: _181  and  _182
REMARK   63  A    between atoms: _184  and  _186
REMARK   64  A    between atoms: _186  and  _187
REMARK   65  A    between atoms: _186  and  _189
REMARK   66  A    between atoms: _189  and  _190
REMARK   67  A    between atoms: _196  and  _198
REMARK   68  A    between atoms: _198  and  _199
REMARK   69  A    between atoms: _198  and  _201
REMARK   70  A    between atoms: _201  and  _202
REMARK   71  A    between atoms: _209  and  _210
REMARK   72  A    between atoms: _215  and  _217
REMARK   73  A    between atoms: _217  and  _218
REMARK   74  A    between atoms: _217  and  _220
REMARK   75  A    between atoms: _220  and  _221
REMARK   76  A    between atoms: _221  and  _222
REMARK   77  A    between atoms: _227  and  _229
REMARK   78  A    between atoms: _229  and  _230
REMARK   79  A    between atoms: _232  and  _234
REMARK   80  A    between atoms: _234  and  _235
REMARK   81  A    between atoms: _238  and  _240
REMARK   82  A    between atoms: _240  and  _241
REMARK   83  A    between atoms: _240  and  _243
REMARK   84  A    between atoms: _243  and  _244
REMARK   85  A    between atoms: _244  and  _246
REMARK   86  A    between atoms: _246  and  FE_299
REMARK   87  A    between atoms: _247  and  _249
REMARK   88  A    between atoms: _249  and  _250
REMARK   89  A    between atoms: _249  and  _252
REMARK   90  A    between atoms: _252  and  _253
REMARK   91  A    between atoms: _256  and  _258
REMARK   92  A    between atoms: _258  and  _259
REMARK   93  A    between atoms: _258  and  _261
REMARK   94  A    between atoms: _261  and  _262
REMARK   95  A    between atoms: _262  and  _263
REMARK   96  A    between atoms: _265  and  _267
REMARK   97  A    between atoms: _267  and  _268
REMARK   98  A    between atoms: _270  and  _272
REMARK   99  A    between atoms: _272  and  _273
REMARK  100  A    between atoms: _275  and  _277
REMARK  101  A    between atoms: _277  and  _278
REMARK  102  A    between atoms: _280  and  _282
REMARK  103  A    between atoms: _282  and  _283
REMARK  104  A    between atoms: _285  and  _287
REMARK  105  A    between atoms: _287  and  _288
REMARK  106  A    between atoms: _287  and  _290
REMARK  107  A    between atoms: _290  and  _291
REMARK  108  A    between atoms: _296  and  _297
REMARK                            x       y       z     vdW  Elec       q    Type
REMARK                         _______ _______ _______ _____ _____    ______ ____
ROOT
ATOM      1  CA  ASP A   1      -9.108  33.015   5.541  0.00  0.00    +0.144 C 
ENDROOT
BRANCH   1   2
ATOM      2  N   ASP A   1     -10.403  32.352   5.311  0.00  0.00    -0.239 NA
ATOM      3  H   ASP A   1     -10.560  31.801   4.443  0.00  0.00    +0.142 HD
ENDBRANCH   1   2
BRANCH   1   4
ATOM      4  C   ASP A   1      -9.244  34.542   5.386  0.00  0.00    +0.225 C 
ATOM      5  O   ASP A   1      -9.981  35.015   4.506  0.00  0.00    -0.287 OA
ENDBRANCH   1   4
BRANCH   1   6
ATOM      6  CB  ASP A   1      -7.997  32.456   4.641  0.00  0.00    +0.139 C 
BRANCH   6   7
ATOM      7  CG  ASP A   1      -6.587  32.880   5.129  0.00  0.00    +0.367 C 
ATOM      8  OD2 ASP A   1      -5.918  32.092   5.830  0.00  0.00    -0.246 OA
ATOM      9  OD1 ASP A   1      -6.186  34.036   4.848  0.00  0.00    -0.246 OA
ENDBRANCH   6   7
ENDBRANCH   1   6
TORSDOF 4
REMARK  Name = ../refined-set-2016/3mz6/3mz6_pocket.pdb
REMARK  108 active torsions:
REMARK  status: ('A' for Active; 'I' for Inactive)
REMARK    1  A    between atoms: _1  and  _3
REMARK    2  A    between atoms: _3  and  _4
REMARK    3  A    between atoms: _3  and  _6
REMARK    4  A    between atoms: _6  and  _7
REMARK    5  A    between atoms: _7  and  _8
REMARK    6  A    between atoms: _8  and  _9
REMARK    7  A    between atoms: _18  and  _20
REMARK    8  A    between atoms: _20  and  _21
REMARK    9  A    between atoms: _20  and  _23
REMARK   10  A    between atoms: _23  and  _24
REMARK   11  A    between atoms: _29  and  _30
REMARK   12  A    between atoms: _32  and  _34
REMARK   13  A    between atoms: _34  and  _35
REMARK   14  A    between atoms: _34  and  _37
REMARK   15  A    between atoms: _37  and  _38
REMARK   16  A    between atoms: _41  and  _43
REMARK   17  A    between atoms: _43  and  _44
REMARK   18  A    between atoms: _46  and  _48
REMARK   19  A    between atoms: _48  and  _49
REMARK   20  A    between atoms: _48  and  _51
REMARK   21  A    between atoms: _51  and  _52
REMARK   22  A    between atoms: _62  and  _64
REMARK   23  A    between atoms: _64  and  _65
REMARK   24  A    between atoms: _64  and  _67
REMARK   25  A    between atoms: _67  and  _68
REMARK   26  A    between atoms: _73  and  _75
REMARK   27  A    between atoms: _75  and  _76
REMARK   28  A    between atoms: _75  and  _78
REMARK   29  A    between atoms: _78  and  _79
REMARK   30  A    between atoms: _84  and  _86
REMARK   31  A    between atoms: _86  and  _87
REMARK   32  A    between atoms: _86  and  _89
REMARK   33  A    between atoms: _89  and  _90
REMARK   34  A    between atoms: _92  and  _94
REMARK   35  A    between atoms: _94  and  _95
REMARK   36  A    between atoms: _97  and  _99
REMARK   37  A    between atoms: _99  and  _100
REMARK   38  A    between atoms: _99  and  _102
REMARK   39  A    between atoms: _102  and  _103
REMARK   40  A    between atoms: _109  and  _111
REMARK   41  A    between atoms: _111  and  _112
REMARK   42  A    between atoms: _111  and  _114
REMARK   43  A    between atoms: _116  and  _118
REMARK   44  A    between atoms: _118  and  _119
REMARK   45  A    between atoms: _118  and  _121
REMARK   46  A    between atoms: _121  and  _122
REMARK   47  A    between atoms: _125  and  _127
REMARK   48  A    between atoms: _136  and  _139
REMARK   49  A    between atoms: _139  and  _140
REMARK   50  A    between atoms: _145  and  _146
REMARK   51  A    between atoms: _154  and  _156
REMARK   52  A    between atoms: _156  and  _157
REMARK   53  A    between atoms: _156  and  _159
REMARK   54  A    between atoms: _159  and  _160
REMARK   55  A    between atoms: _165  and  _167
REMARK   56  A    between atoms: _167  and  _168
REMARK   57  A    between atoms: _170  and  _172
REMARK   58  A    between atoms: _172  and  _173
REMARK   59  A    between atoms: _172  and  _175
REMARK   60  A    between atoms: _175  and  _176
REMARK   61  A    between atoms: _179  and  _181
REMARK   62  A    between atoms: _181  and  _182
REMARK   63  A    between atoms: _184  and  _186
REMARK   64  A    between atoms: _186  and  _187
REMARK   65  A    between atoms: _186  and  _189
REMARK   66  A    between atoms: _189  and  _190
REMARK   67  A    between atoms: _196  and  _198
REMARK   68  A    between atoms: _198  and  _199
REMARK   69  A    between atoms: _198  and  _201
REMARK   70  A    between atoms: _201  and  _202
REMARK   71  A    between atoms: _209  and  _210
REMARK   72  A    between atoms: _215  and  _217
REMARK   73  A    between atoms: _217  and  _218
REMARK   74  A    between atoms: _217  and  _220
REMARK   75  A    between atoms: _220  and  _221
REMARK   76  A    between atoms: _221  and  _222
REMARK   77  A    between atoms: _227  and  _229
REMARK   78  A    between atoms: _229  and  _230
REMARK   79  A    between atoms: _232  and  _234
REMARK   80  A    between atoms: _234  and  _235
REMARK   81  A    between atoms: _238  and  _240
REMARK   82  A    between atoms: _240  and  _241
REMARK   83  A    between atoms: _240  and  _243
REMARK   84  A    between atoms: _243  and  _244
REMARK   85  A    between atoms: _244  and  _246
REMARK   86  A    between atoms: _246  and  FE_299
REMARK   87  A    between atoms: _247  and  _249
REMARK   88  A    between atoms: _249  and  _250
REMARK   89  A    between atoms: _249  and  _252
REMARK   90  A    between atoms: _252  and  _253
REMARK   91  A    between atoms: _256  and  _258
REMARK   92  A    between atoms: _258  and  _259
REMARK   93  A    between atoms: _258  and  _261
REMARK   94  A    between atoms: _261  and  _262
REMARK   95  A    between atoms: _262  and  _263
REMARK   96  A    between atoms: _265  and  _267
REMARK   97  A    between atoms: _267  and  _268
REMARK   98  A    between atoms: _270  and  _272
REMARK   99  A    between atoms: _272  and  _273
REMARK  100  A    between atoms: _275  and  _277
REMARK  101  A    between atoms: _277  and  _278
REMARK  102  A    between atoms: _280  and  _282
REMARK  103  A    between atoms: _282  and  _283
REMARK  104  A    between atoms: _285  and  _287
REMARK  105  A    between atoms: _287  and  _288
REMARK  106  A    between atoms: _287  and  _290
REMARK  107  A    between atoms: _290  and  _291
REMARK  108  A    between atoms: _296  and  _297
REMARK                            x       y       z     vdW  Elec       q    Type
REMARK                         _______ _______ _______ _____ _____    ______ ____
ROOT
ATOM      1  CA  MET A   1      -6.850  36.783   2.560  0.00  0.00    +0.134 C 
ENDROOT
BRANCH   1   2
ATOM      2  N   MET A   1      -7.299  36.440   3.950  0.00  0.00    -0.239 NA
ATOM      3  H   MET A   1      -6.978  35.551   4.383  0.00  0.00    +0.142 HD
ENDBRANCH   1   2
BRANCH   1   4
ATOM      4  C   MET A   1      -8.064  36.874   1.631  0.00  0.00    +0.224 C 
ATOM      5  O   MET A   1      -7.981  37.446   0.534  0.00  0.00    -0.287 OA
ENDBRANCH   1   4
BRANCH   1   6
ATOM      6  CB  MET A   1      -5.877  35.734   2.000  0.00  0.00    +0.037 C 
BRANCH   6   7
ATOM      7  CG  MET A   1      -4.502  35.674   2.716  0.00  0.00    +0.059 C 
BRANCH   7   8
ATOM      8  SD  MET A   1      -3.605  37.199   2.471  0.00  0.00    -0.139 S 
ATOM      9  CE  MET A   1      -2.726  37.318   4.034  0.00  0.00    +0.069 C 
ENDBRANCH   7   8
ENDBRANCH   6   7
ENDBRANCH   1   6
TORSDOF 5
REMARK  Name = ../refined-set-2016/3mz6/3mz6_pocket.pdb
REMARK  108 active torsions:
REMARK  status: ('A' for Active; 'I' for Inactive)
REMARK    1  A    between atoms: _1  and  _3
REMARK    2  A    between atoms: _3  and  _4
REMARK    3  A    between atoms: _3  and  _6
REMARK    4  A    between atoms: _6  and  _7
REMARK    5  A    between atoms: _7  and  _8
REMARK    6  A    between atoms: _8  and  _9
REMARK    7  A    between atoms: _18  and  _20
REMARK    8  A    between atoms: _20  and  _21
REMARK    9  A    between atoms: _20  and  _23
REMARK   10  A    between atoms: _23  and  _24
REMARK   11  A    between atoms: _29  and  _30
REMARK   12  A    between atoms: _32  and  _34
REMARK   13  A    between atoms: _34  and  _35
REMARK   14  A    between atoms: _34  and  _37
REMARK   15  A    between atoms: _37  and  _38
REMARK   16  A    between atoms: _41  and  _43
REMARK   17  A    between atoms: _43  and  _44
REMARK   18  A    between atoms: _46  and  _48
REMARK   19  A    between atoms: _48  and  _49
REMARK   20  A    between atoms: _48  and  _51
REMARK   21  A    between atoms: _51  and  _52
REMARK   22  A    between atoms: _62  and  _64
REMARK   23  A    between atoms: _64  and  _65
REMARK   24  A    between atoms: _64  and  _67
REMARK   25  A    between atoms: _67  and  _68
REMARK   26  A    between atoms: _73  and  _75
REMARK   27  A    between atoms: _75  and  _76
REMARK   28  A    between atoms: _75  and  _78
REMARK   29  A    between atoms: _78  and  _79
REMARK   30  A    between atoms: _84  and  _86
REMARK   31  A    between atoms: _86  and  _87
REMARK   32  A    between atoms: _86  and  _89
REMARK   33  A    between atoms: _89  and  _90
REMARK   34  A    between atoms: _92  and  _94
REMARK   35  A    between atoms: _94  and  _95
REMARK   36  A    between atoms: _97  and  _99
REMARK   37  A    between atoms: _99  and  _100
REMARK   38  A    between atoms: _99  and  _102
REMARK   39  A    between atoms: _102  and  _103
REMARK   40  A    between atoms: _109  and  _111
REMARK   41  A    between atoms: _111  and  _112
REMARK   42  A    between atoms: _111  and  _114
REMARK   43  A    between atoms: _116  and  _118
REMARK   44  A    between atoms: _118  and  _119
REMARK   45  A    between atoms: _118  and  _121
REMARK   46  A    between atoms: _121  and  _122
REMARK   47  A    between atoms: _125  and  _127
REMARK   48  A    between atoms: _136  and  _139
REMARK   49  A    between atoms: _139  and  _140
REMARK   50  A    between atoms: _145  and  _146
REMARK   51  A    between atoms: _154  and  _156
REMARK   52  A    between atoms: _156  and  _157
REMARK   53  A    between atoms: _156  and  _159
REMARK   54  A    between atoms: _159  and  _160
REMARK   55  A    between atoms: _165  and  _167
REMARK   56  A    between atoms: _167  and  _168
REMARK   57  A    between atoms: _170  and  _172
REMARK   58  A    between atoms: _172  and  _173
REMARK   59  A    between atoms: _172  and  _175
REMARK   60  A    between atoms: _175  and  _176
REMARK   61  A    between atoms: _179  and  _181
REMARK   62  A    between atoms: _181  and  _182
REMARK   63  A    between atoms: _184  and  _186
REMARK   64  A    between atoms: _186  and  _187
REMARK   65  A    between atoms: _186  and  _189
REMARK   66  A    between atoms: _189  and  _190
REMARK   67  A    between atoms: _196  and  _198
REMARK   68  A    between atoms: _198  and  _199
REMARK   69  A    between atoms: _198  and  _201
REMARK   70  A    between atoms: _201  and  _202
REMARK   71  A    between atoms: _209  and  _210
REMARK   72  A    between atoms: _215  and  _217
REMARK   73  A    between atoms: _217  and  _218
REMARK   74  A    between atoms: _217  and  _220
REMARK   75  A    between atoms: _220  and  _221
REMARK   76  A    between atoms: _221  and  _222
REMARK   77  A    between atoms: _227  and  _229
REMARK   78  A    between atoms: _229  and  _230
REMARK   79  A    between atoms: _232  and  _234
REMARK   80  A    between atoms: _234  and  _235
REMARK   81  A    between atoms: _238  and  _240
REMARK   82  A    between atoms: _240  and  _241
REMARK   83  A    between atoms: _240  and  _243
REMARK   84  A    between atoms: _243  and  _244
REMARK   85  A    between atoms: _244  and  _246
REMARK   86  A    between atoms: _246  and  FE_299
REMARK   87  A    between atoms: _247  and  _249
REMARK   88  A    between atoms: _249  and  _250
REMARK   89  A    between atoms: _249  and  _252
REMARK   90  A    between atoms: _252  and  _253
REMARK   91  A    between atoms: _256  and  _258
REMARK   92  A    between atoms: _258  and  _259
REMARK   93  A    between atoms: _258  and  _261
REMARK   94  A    between atoms: _261  and  _262
REMARK   95  A    between atoms: _262  and  _263
REMARK   96  A    between atoms: _265  and  _267
REMARK   97  A    between atoms: _267  and  _268
REMARK   98  A    between atoms: _270  and  _272
REMARK   99  A    between atoms: _272  and  _273
REMARK  100  A    between atoms: _275  and  _277
REMARK  101  A    between atoms: _277  and  _278
REMARK  102  A    between atoms: _280  and  _282
REMARK  103  A    between atoms: _282  and  _283
REMARK  104  A    between atoms: _285  and  _287
REMARK  105  A    between atoms: _287  and  _288
REMARK  106  A    between atoms: _287  and  _290
REMARK  107  A    between atoms: _290  and  _291
REMARK  108  A    between atoms: _296  and  _297
REMARK                            x       y       z     vdW  Elec       q    Type
REMARK                         _______ _______ _______ _____ _____    ______ ____
ROOT
ATOM      1  C   GLY A   3      -0.768  30.178   5.482  0.00  0.00    +0.243 C 
ATOM      2  N   GLY A   4      -1.666  30.965   6.040  0.00  0.00    -0.295 N 
ATOM      3  H   GLY A   4      -1.594  31.997   5.935  0.00  0.00    +0.150 HD
ATOM      4  O   GLY A   3      -0.811  28.940   5.579  0.00  0.00    -0.273 OA
ENDROOT
BRANCH   1   5
ATOM      5  CA  GLY A   3       0.401  30.873   4.837  0.00  0.00    +0.176 C 
BRANCH   5   8
ATOM      6  C   GLY A   2       2.051  29.124   5.309  0.00  0.00    +0.243 C 
ATOM      7  O   GLY A   2       1.798  29.140   6.516  0.00  0.00    -0.273 OA
ATOM      8  N   GLY A   3       1.455  29.929   4.441  0.00  0.00    -0.295 N 
ATOM      9  H   GLY A   3       1.744  29.891   3.443  0.00  0.00    +0.150 HD
BRANCH   6  10
ATOM     10  CA  GLY A   2       3.051  28.130   4.730  0.00  0.00    +0.176 C 
BRANCH  10  12
ATOM     11  C   GLY A   1       3.173  25.665   4.745  0.00  0.00    +0.240 C 
ATOM     12  N   GLY A   2       2.900  26.807   5.367  0.00  0.00    -0.295 N 
ATOM     13  H   GLY A   2       2.564  26.767   6.350  0.00  0.00    +0.150 HD
ATOM     14  O   GLY A   1       3.600  25.628   3.593  0.00  0.00    -0.274 OA
BRANCH  11  15
ATOM     15  CA  GLY A   1       2.963  24.369   5.537  0.00  0.00    +0.169 C 
BRANCH  15  16
ATOM     16  N   GLY A   1       4.140  23.480   5.440  0.00  0.00    -0.236 NA
ATOM     17  H   GLY A   1       4.875  23.513   6.175  0.00  0.00    +0.142 HD
ENDBRANCH  15  16
ENDBRANCH  11  15
ENDBRANCH  10  12
ENDBRANCH   6  10
ENDBRANCH   5   8
ENDBRANCH   1   5
BRANCH   2  18
ATOM     18  CA  GLY A   4      -2.750  30.387   6.797  0.00  0.00    +0.176 C 
BRANCH  18  19
ATOM     19  C   GLY A   4      -2.997  31.274   7.981  0.00  0.00    +0.243 C 
ATOM     20  O   GLY A   4      -2.295  31.155   8.979  0.00  0.00    -0.273 OA
ATOM     21  N   TYR A   5      -3.978  32.172   7.843  0.00  0.00    -0.298 N 
ATOM     22  H   TYR A   5      -4.624  32.076   7.034  0.00  0.00    +0.150 HD
BRANCH  21  23
ATOM     23  CA  TYR A   5      -4.192  33.298   8.784  0.00  0.00    +0.141 C 
BRANCH  23  24
ATOM     24  C   TYR A   5      -5.496  33.204   9.588  0.00  0.00    +0.227 C 
ATOM     25  O   TYR A   5      -5.725  34.006  10.489  0.00  0.00    -0.286 OA
ENDBRANCH  23  24
BRANCH  23  26
ATOM     26  CB  TYR A   5      -4.089  34.637   8.024  0.00  0.00    +0.054 C 
BRANCH  26  27
ATOM     27  CG  TYR A   5      -2.773  34.683   7.262  0.00  0.00    -0.020 A 
ATOM     28  CD2 TYR A   5      -1.584  34.897   7.945  0.00  0.00    -0.001 A 
ATOM     29  CE2 TYR A   5      -0.375  34.844   7.306  0.00  0.00    +0.036 A 
ATOM     30  CZ  TYR A   5      -0.313  34.548   5.955  0.00  0.00    +0.134 A 
ATOM     31  CE1 TYR A   5      -1.463  34.259   5.234  0.00  0.00    +0.036 A 
ATOM     32  CD1 TYR A   5      -2.703  34.320   5.896  0.00  0.00    -0.001 A 
BRANCH  30  33
ATOM     33  OH  TYR A   5       0.948  34.493   5.384  0.00  0.00    -0.506 OA
ATOM     34  HH  TYR A   5       0.864  34.275   4.422  0.00  0.00    +0.292 HD
ENDBRANCH  30  33
ENDBRANCH  26  27
ENDBRANCH  23  26
ENDBRANCH  21  23
ENDBRANCH  18  19
ENDBRANCH   2  18
TORSDOF 13
REMARK  Name = ../refined-set-2016/3mz6/3mz6_pocket.pdb
REMARK  108 active torsions:
REMARK  status: ('A' for Active; 'I' for Inactive)
REMARK    1  A    between atoms: _1  and  _3
REMARK    2  A    between atoms: _3  and  _4
REMARK    3  A    between atoms: _3  and  _6
REMARK    4  A    between atoms: _6  and  _7
REMARK    5  A    between atoms: _7  and  _8
REMARK    6  A    between atoms: _8  and  _9
REMARK    7  A    between atoms: _18  and  _20
REMARK    8  A    between atoms: _20  and  _21
REMARK    9  A    between atoms: _20  and  _23
REMARK   10  A    between atoms: _23  and  _24
REMARK   11  A    between atoms: _29  and  _30
REMARK   12  A    between atoms: _32  and  _34
REMARK   13  A    between atoms: _34  and  _35
REMARK   14  A    between atoms: _34  and  _37
REMARK   15  A    between atoms: _37  and  _38
REMARK   16  A    between atoms: _41  and  _43
REMARK   17  A    between atoms: _43  and  _44
REMARK   18  A    between atoms: _46  and  _48
REMARK   19  A    between atoms: _48  and  _49
REMARK   20  A    between atoms: _48  and  _51
REMARK   21  A    between atoms: _51  and  _52
REMARK   22  A    between atoms: _62  and  _64
REMARK   23  A    between atoms: _64  and  _65
REMARK   24  A    between atoms: _64  and  _67
REMARK   25  A    between atoms: _67  and  _68
REMARK   26  A    between atoms: _73  and  _75
REMARK   27  A    between atoms: _75  and  _76
REMARK   28  A    between atoms: _75  and  _78
REMARK   29  A    between atoms: _78  and  _79
REMARK   30  A    between atoms: _84  and  _86
REMARK   31  A    between atoms: _86  and  _87
REMARK   32  A    between atoms: _86  and  _89
REMARK   33  A    between atoms: _89  and  _90
REMARK   34  A    between atoms: _92  and  _94
REMARK   35  A    between atoms: _94  and  _95
REMARK   36  A    between atoms: _97  and  _99
REMARK   37  A    between atoms: _99  and  _100
REMARK   38  A    between atoms: _99  and  _102
REMARK   39  A    between atoms: _102  and  _103
REMARK   40  A    between atoms: _109  and  _111
REMARK   41  A    between atoms: _111  and  _112
REMARK   42  A    between atoms: _111  and  _114
REMARK   43  A    between atoms: _116  and  _118
REMARK   44  A    between atoms: _118  and  _119
REMARK   45  A    between atoms: _118  and  _121
REMARK   46  A    between atoms: _121  and  _122
REMARK   47  A    between atoms: _125  and  _127
REMARK   48  A    between atoms: _136  and  _139
REMARK   49  A    between atoms: _139  and  _140
REMARK   50  A    between atoms: _145  and  _146
REMARK   51  A    between atoms: _154  and  _156
REMARK   52  A    between atoms: _156  and  _157
REMARK   53  A    between atoms: _156  and  _159
REMARK   54  A    between atoms: _159  and  _160
REMARK   55  A    between atoms: _165  and  _167
REMARK   56  A    between atoms: _167  and  _168
REMARK   57  A    between atoms: _170  and  _172
REMARK   58  A    between atoms: _172  and  _173
REMARK   59  A    between atoms: _172  and  _175
REMARK   60  A    between atoms: _175  and  _176
REMARK   61  A    between atoms: _179  and  _181
REMARK   62  A    between atoms: _181  and  _182
REMARK   63  A    between atoms: _184  and  _186
REMARK   64  A    between atoms: _186  and  _187
REMARK   65  A    between atoms: _186  and  _189
REMARK   66  A    between atoms: _189  and  _190
REMARK   67  A    between atoms: _196  and  _198
REMARK   68  A    between atoms: _198  and  _199
REMARK   69  A    between atoms: _198  and  _201
REMARK   70  A    between atoms: _201  and  _202
REMARK   71  A    between atoms: _209  and  _210
REMARK   72  A    between atoms: _215  and  _217
REMARK   73  A    between atoms: _217  and  _218
REMARK   74  A    between atoms: _217  and  _220
REMARK   75  A    between atoms: _220  and  _221
REMARK   76  A    between atoms: _221  and  _222
REMARK   77  A    between atoms: _227  and  _229
REMARK   78  A    between atoms: _229  and  _230
REMARK   79  A    between atoms: _232  and  _234
REMARK   80  A    between atoms: _234  and  _235
REMARK   81  A    between atoms: _238  and  _240
REMARK   82  A    between atoms: _240  and  _241
REMARK   83  A    between atoms: _240  and  _243
REMARK   84  A    between atoms: _243  and  _244
REMARK   85  A    between atoms: _244  and  _246
REMARK   86  A    between atoms: _246  and  FE_299
REMARK   87  A    between atoms: _247  and  _249
REMARK   88  A    between atoms: _249  and  _250
REMARK   89  A    between atoms: _249  and  _252
REMARK   90  A    between atoms: _252  and  _253
REMARK   91  A    between atoms: _256  and  _258
REMARK   92  A    between atoms: _258  and  _259
REMARK   93  A    between atoms: _258  and  _261
REMARK   94  A    between atoms: _261  and  _262
REMARK   95  A    between atoms: _262  and  _263
REMARK   96  A    between atoms: _265  and  _267
REMARK   97  A    between atoms: _267  and  _268
REMARK   98  A    between atoms: _270  and  _272
REMARK   99  A    between atoms: _272  and  _273
REMARK  100  A    between atoms: _275  and  _277
REMARK  101  A    between atoms: _277  and  _278
REMARK  102  A    between atoms: _280  and  _282
REMARK  103  A    between atoms: _282  and  _283
REMARK  104  A    between atoms: _285  and  _287
REMARK  105  A    between atoms: _287  and  _288
REMARK  106  A    between atoms: _287  and  _290
REMARK  107  A    between atoms: _290  and  _291
REMARK  108  A    between atoms: _296  and  _297
REMARK                            x       y       z     vdW  Elec       q    Type
REMARK                         _______ _______ _______ _____ _____    ______ ____
ROOT
ATOM      1  O   HOH     1       0.279  35.467  -5.990  0.00  0.00    +0.000 OA
ENDROOT
TORSDOF 0
REMARK  Name = ../refined-set-2016/3mz6/3mz6_pocket.pdb
REMARK  108 active torsions:
REMARK  status: ('A' for Active; 'I' for Inactive)
REMARK    1  A    between atoms: _1  and  _3
REMARK    2  A    between atoms: _3  and  _4
REMARK    3  A    between atoms: _3  and  _6
REMARK    4  A    between atoms: _6  and  _7
REMARK    5  A    between atoms: _7  and  _8
REMARK    6  A    between atoms: _8  and  _9
REMARK    7  A    between atoms: _18  and  _20
REMARK    8  A    between atoms: _20  and  _21
REMARK    9  A    between atoms: _20  and  _23
REMARK   10  A    between atoms: _23  and  _24
REMARK   11  A    between atoms: _29  and  _30
REMARK   12  A    between atoms: _32  and  _34
REMARK   13  A    between atoms: _34  and  _35
REMARK   14  A    between atoms: _34  and  _37
REMARK   15  A    between atoms: _37  and  _38
REMARK   16  A    between atoms: _41  and  _43
REMARK   17  A    between atoms: _43  and  _44
REMARK   18  A    between atoms: _46  and  _48
REMARK   19  A    between atoms: _48  and  _49
REMARK   20  A    between atoms: _48  and  _51
REMARK   21  A    between atoms: _51  and  _52
REMARK   22  A    between atoms: _62  and  _64
REMARK   23  A    between atoms: _64  and  _65
REMARK   24  A    between atoms: _64  and  _67
REMARK   25  A    between atoms: _67  and  _68
REMARK   26  A    between atoms: _73  and  _75
REMARK   27  A    between atoms: _75  and  _76
REMARK   28  A    between atoms: _75  and  _78
REMARK   29  A    between atoms: _78  and  _79
REMARK   30  A    between atoms: _84  and  _86
REMARK   31  A    between atoms: _86  and  _87
REMARK   32  A    between atoms: _86  and  _89
REMARK   33  A    between atoms: _89  and  _90
REMARK   34  A    between atoms: _92  and  _94
REMARK   35  A    between atoms: _94  and  _95
REMARK   36  A    between atoms: _97  and  _99
REMARK   37  A    between atoms: _99  and  _100
REMARK   38  A    between atoms: _99  and  _102
REMARK   39  A    between atoms: _102  and  _103
REMARK   40  A    between atoms: _109  and  _111
REMARK   41  A    between atoms: _111  and  _112
REMARK   42  A    between atoms: _111  and  _114
REMARK   43  A    between atoms: _116  and  _118
REMARK   44  A    between atoms: _118  and  _119
REMARK   45  A    between atoms: _118  and  _121
REMARK   46  A    between atoms: _121  and  _122
REMARK   47  A    between atoms: _125  and  _127
REMARK   48  A    between atoms: _136  and  _139
REMARK   49  A    between atoms: _139  and  _140
REMARK   50  A    between atoms: _145  and  _146
REMARK   51  A    between atoms: _154  and  _156
REMARK   52  A    between atoms: _156  and  _157
REMARK   53  A    between atoms: _156  and  _159
REMARK   54  A    between atoms: _159  and  _160
REMARK   55  A    between atoms: _165  and  _167
REMARK   56  A    between atoms: _167  and  _168
REMARK   57  A    between atoms: _170  and  _172
REMARK   58  A    between atoms: _172  and  _173
REMARK   59  A    between atoms: _172  and  _175
REMARK   60  A    between atoms: _175  and  _176
REMARK   61  A    between atoms: _179  and  _181
REMARK   62  A    between atoms: _181  and  _182
REMARK   63  A    between atoms: _184  and  _186
REMARK   64  A    between atoms: _186  and  _187
REMARK   65  A    between atoms: _186  and  _189
REMARK   66  A    between atoms: _189  and  _190
REMARK   67  A    between atoms: _196  and  _198
REMARK   68  A    between atoms: _198  and  _199
REMARK   69  A    between atoms: _198  and  _201
REMARK   70  A    between atoms: _201  and  _202
REMARK   71  A    between atoms: _209  and  _210
REMARK   72  A    between atoms: _215  and  _217
REMARK   73  A    between atoms: _217  and  _218
REMARK   74  A    between atoms: _217  and  _220
REMARK   75  A    between atoms: _220  and  _221
REMARK   76  A    between atoms: _221  and  _222
REMARK   77  A    between atoms: _227  and  _229
REMARK   78  A    between atoms: _229  and  _230
REMARK   79  A    between atoms: _232  and  _234
REMARK   80  A    between atoms: _234  and  _235
REMARK   81  A    between atoms: _238  and  _240
REMARK   82  A    between atoms: _240  and  _241
REMARK   83  A    between atoms: _240  and  _243
REMARK   84  A    between atoms: _243  and  _244
REMARK   85  A    between atoms: _244  and  _246
REMARK   86  A    between atoms: _246  and  FE_299
REMARK   87  A    between atoms: _247  and  _249
REMARK   88  A    between atoms: _249  and  _250
REMARK   89  A    between atoms: _249  and  _252
REMARK   90  A    between atoms: _252  and  _253
REMARK   91  A    between atoms: _256  and  _258
REMARK   92  A    between atoms: _258  and  _259
REMARK   93  A    between atoms: _258  and  _261
REMARK   94  A    between atoms: _261  and  _262
REMARK   95  A    between atoms: _262  and  _263
REMARK   96  A    between atoms: _265  and  _267
REMARK   97  A    between atoms: _267  and  _268
REMARK   98  A    between atoms: _270  and  _272
REMARK   99  A    between atoms: _272  and  _273
REMARK  100  A    between atoms: _275  and  _277
REMARK  101  A    between atoms: _277  and  _278
REMARK  102  A    between atoms: _280  and  _282
REMARK  103  A    between atoms: _282  and  _283
REMARK  104  A    between atoms: _285  and  _287
REMARK  105  A    between atoms: _287  and  _288
REMARK  106  A    between atoms: _287  and  _290
REMARK  107  A    between atoms: _290  and  _291
REMARK  108  A    between atoms: _296  and  _297
REMARK                            x       y       z     vdW  Elec       q    Type
REMARK                         _______ _______ _______ _____ _____    ______ ____
ROOT
ATOM      1  O   HOH     1      -2.012  38.791   0.121  0.00  0.00    +0.000 OA
ENDROOT
TORSDOF 0
REMARK  Name = ../refined-set-2016/3mz6/3mz6_pocket.pdb
REMARK  108 active torsions:
REMARK  status: ('A' for Active; 'I' for Inactive)
REMARK    1  A    between atoms: _1  and  _3
REMARK    2  A    between atoms: _3  and  _4
REMARK    3  A    between atoms: _3  and  _6
REMARK    4  A    between atoms: _6  and  _7
REMARK    5  A    between atoms: _7  and  _8
REMARK    6  A    between atoms: _8  and  _9
REMARK    7  A    between atoms: _18  and  _20
REMARK    8  A    between atoms: _20  and  _21
REMARK    9  A    between atoms: _20  and  _23
REMARK   10  A    between atoms: _23  and  _24
REMARK   11  A    between atoms: _29  and  _30
REMARK   12  A    between atoms: _32  and  _34
REMARK   13  A    between atoms: _34  and  _35
REMARK   14  A    between atoms: _34  and  _37
REMARK   15  A    between atoms: _37  and  _38
REMARK   16  A    between atoms: _41  and  _43
REMARK   17  A    between atoms: _43  and  _44
REMARK   18  A    between atoms: _46  and  _48
REMARK   19  A    between atoms: _48  and  _49
REMARK   20  A    between atoms: _48  and  _51
REMARK   21  A    between atoms: _51  and  _52
REMARK   22  A    between atoms: _62  and  _64
REMARK   23  A    between atoms: _64  and  _65
REMARK   24  A    between atoms: _64  and  _67
REMARK   25  A    between atoms: _67  and  _68
REMARK   26  A    between atoms: _73  and  _75
REMARK   27  A    between atoms: _75  and  _76
REMARK   28  A    between atoms: _75  and  _78
REMARK   29  A    between atoms: _78  and  _79
REMARK   30  A    between atoms: _84  and  _86
REMARK   31  A    between atoms: _86  and  _87
REMARK   32  A    between atoms: _86  and  _89
REMARK   33  A    between atoms: _89  and  _90
REMARK   34  A    between atoms: _92  and  _94
REMARK   35  A    between atoms: _94  and  _95
REMARK   36  A    between atoms: _97  and  _99
REMARK   37  A    between atoms: _99  and  _100
REMARK   38  A    between atoms: _99  and  _102
REMARK   39  A    between atoms: _102  and  _103
REMARK   40  A    between atoms: _109  and  _111
REMARK   41  A    between atoms: _111  and  _112
REMARK   42  A    between atoms: _111  and  _114
REMARK   43  A    between atoms: _116  and  _118
REMARK   44  A    between atoms: _118  and  _119
REMARK   45  A    between atoms: _118  and  _121
REMARK   46  A    between atoms: _121  and  _122
REMARK   47  A    between atoms: _125  and  _127
REMARK   48  A    between atoms: _136  and  _139
REMARK   49  A    between atoms: _139  and  _140
REMARK   50  A    between atoms: _145  and  _146
REMARK   51  A    between atoms: _154  and  _156
REMARK   52  A    between atoms: _156  and  _157
REMARK   53  A    between atoms: _156  and  _159
REMARK   54  A    between atoms: _159  and  _160
REMARK   55  A    between atoms: _165  and  _167
REMARK   56  A    between atoms: _167  and  _168
REMARK   57  A    between atoms: _170  and  _172
REMARK   58  A    between atoms: _172  and  _173
REMARK   59  A    between atoms: _172  and  _175
REMARK   60  A    between atoms: _175  and  _176
REMARK   61  A    between atoms: _179  and  _181
REMARK   62  A    between atoms: _181  and  _182
REMARK   63  A    between atoms: _184  and  _186
REMARK   64  A    between atoms: _186  and  _187
REMARK   65  A    between atoms: _186  and  _189
REMARK   66  A    between atoms: _189  and  _190
REMARK   67  A    between atoms: _196  and  _198
REMARK   68  A    between atoms: _198  and  _199
REMARK   69  A    between atoms: _198  and  _201
REMARK   70  A    between atoms: _201  and  _202
REMARK   71  A    between atoms: _209  and  _210
REMARK   72  A    between atoms: _215  and  _217
REMARK   73  A    between atoms: _217  and  _218
REMARK   74  A    between atoms: _217  and  _220
REMARK   75  A    between atoms: _220  and  _221
REMARK   76  A    between atoms: _221  and  _222
REMARK   77  A    between atoms: _227  and  _229
REMARK   78  A    between atoms: _229  and  _230
REMARK   79  A    between atoms: _232  and  _234
REMARK   80  A    between atoms: _234  and  _235
REMARK   81  A    between atoms: _238  and  _240
REMARK   82  A    between atoms: _240  and  _241
REMARK   83  A    between atoms: _240  and  _243
REMARK   84  A    between atoms: _243  and  _244
REMARK   85  A    between atoms: _244  and  _246
REMARK   86  A    between atoms: _246  and  FE_299
REMARK   87  A    between atoms: _247  and  _249
REMARK   88  A    between atoms: _249  and  _250
REMARK   89  A    between atoms: _249  and  _252
REMARK   90  A    between atoms: _252  and  _253
REMARK   91  A    between atoms: _256  and  _258
REMARK   92  A    between atoms: _258  and  _259
REMARK   93  A    between atoms: _258  and  _261
REMARK   94  A    between atoms: _261  and  _262
REMARK   95  A    between atoms: _262  and  _263
REMARK   96  A    between atoms: _265  and  _267
REMARK   97  A    between atoms: _267  and  _268
REMARK   98  A    between atoms: _270  and  _272
REMARK   99  A    between atoms: _272  and  _273
REMARK  100  A    between atoms: _275  and  _277
REMARK  101  A    between atoms: _277  and  _278
REMARK  102  A    between atoms: _280  and  _282
REMARK  103  A    between atoms: _282  and  _283
REMARK  104  A    between atoms: _285  and  _287
REMARK  105  A    between atoms: _287  and  _288
REMARK  106  A    between atoms: _287  and  _290
REMARK  107  A    between atoms: _290  and  _291
REMARK  108  A    between atoms: _296  and  _297
REMARK                            x       y       z     vdW  Elec       q    Type
REMARK                         _______ _______ _______ _____ _____    ______ ____
ROOT
ATOM      1  O   HOH     1      -1.723  41.315  -1.820  0.00  0.00    +0.000 OA
ENDROOT
TORSDOF 0
REMARK  Name = ../refined-set-2016/3mz6/3mz6_pocket.pdb
REMARK  108 active torsions:
REMARK  status: ('A' for Active; 'I' for Inactive)
REMARK    1  A    between atoms: _1  and  _3
REMARK    2  A    between atoms: _3  and  _4
REMARK    3  A    between atoms: _3  and  _6
REMARK    4  A    between atoms: _6  and  _7
REMARK    5  A    between atoms: _7  and  _8
REMARK    6  A    between atoms: _8  and  _9
REMARK    7  A    between atoms: _18  and  _20
REMARK    8  A    between atoms: _20  and  _21
REMARK    9  A    between atoms: _20  and  _23
REMARK   10  A    between atoms: _23  and  _24
REMARK   11  A    between atoms: _29  and  _30
REMARK   12  A    between atoms: _32  and  _34
REMARK   13  A    between atoms: _34  and  _35
REMARK   14  A    between atoms: _34  and  _37
REMARK   15  A    between atoms: _37  and  _38
REMARK   16  A    between atoms: _41  and  _43
REMARK   17  A    between atoms: _43  and  _44
REMARK   18  A    between atoms: _46  and  _48
REMARK   19  A    between atoms: _48  and  _49
REMARK   20  A    between atoms: _48  and  _51
REMARK   21  A    between atoms: _51  and  _52
REMARK   22  A    between atoms: _62  and  _64
REMARK   23  A    between atoms: _64  and  _65
REMARK   24  A    between atoms: _64  and  _67
REMARK   25  A    between atoms: _67  and  _68
REMARK   26  A    between atoms: _73  and  _75
REMARK   27  A    between atoms: _75  and  _76
REMARK   28  A    between atoms: _75  and  _78
REMARK   29  A    between atoms: _78  and  _79
REMARK   30  A    between atoms: _84  and  _86
REMARK   31  A    between atoms: _86  and  _87
REMARK   32  A    between atoms: _86  and  _89
REMARK   33  A    between atoms: _89  and  _90
REMARK   34  A    between atoms: _92  and  _94
REMARK   35  A    between atoms: _94  and  _95
REMARK   36  A    between atoms: _97  and  _99
REMARK   37  A    between atoms: _99  and  _100
REMARK   38  A    between atoms: _99  and  _102
REMARK   39  A    between atoms: _102  and  _103
REMARK   40  A    between atoms: _109  and  _111
REMARK   41  A    between atoms: _111  and  _112
REMARK   42  A    between atoms: _111  and  _114
REMARK   43  A    between atoms: _116  and  _118
REMARK   44  A    between atoms: _118  and  _119
REMARK   45  A    between atoms: _118  and  _121
REMARK   46  A    between atoms: _121  and  _122
REMARK   47  A    between atoms: _125  and  _127
REMARK   48  A    between atoms: _136  and  _139
REMARK   49  A    between atoms: _139  and  _140
REMARK   50  A    between atoms: _145  and  _146
REMARK   51  A    between atoms: _154  and  _156
REMARK   52  A    between atoms: _156  and  _157
REMARK   53  A    between atoms: _156  and  _159
REMARK   54  A    between atoms: _159  and  _160
REMARK   55  A    between atoms: _165  and  _167
REMARK   56  A    between atoms: _167  and  _168
REMARK   57  A    between atoms: _170  and  _172
REMARK   58  A    between atoms: _172  and  _173
REMARK   59  A    between atoms: _172  and  _175
REMARK   60  A    between atoms: _175  and  _176
REMARK   61  A    between atoms: _179  and  _181
REMARK   62  A    between atoms: _181  and  _182
REMARK   63  A    between atoms: _184  and  _186
REMARK   64  A    between atoms: _186  and  _187
REMARK   65  A    between atoms: _186  and  _189
REMARK   66  A    between atoms: _189  and  _190
REMARK   67  A    between atoms: _196  and  _198
REMARK   68  A    between atoms: _198  and  _199
REMARK   69  A    between atoms: _198  and  _201
REMARK   70  A    between atoms: _201  and  _202
REMARK   71  A    between atoms: _209  and  _210
REMARK   72  A    between atoms: _215  and  _217
REMARK   73  A    between atoms: _217  and  _218
REMARK   74  A    between atoms: _217  and  _220
REMARK   75  A    between atoms: _220  and  _221
REMARK   76  A    between atoms: _221  and  _222
REMARK   77  A    between atoms: _227  and  _229
REMARK   78  A    between atoms: _229  and  _230
REMARK   79  A    between atoms: _232  and  _234
REMARK   80  A    between atoms: _234  and  _235
REMARK   81  A    between atoms: _238  and  _240
REMARK   82  A    between atoms: _240  and  _241
REMARK   83  A    between atoms: _240  and  _243
REMARK   84  A    between atoms: _243  and  _244
REMARK   85  A    between atoms: _244  and  _246
REMARK   86  A    between atoms: _246  and  FE_299
REMARK   87  A    between atoms: _247  and  _249
REMARK   88  A    between atoms: _249  and  _250
REMARK   89  A    between atoms: _249  and  _252
REMARK   90  A    between atoms: _252  and  _253
REMARK   91  A    between atoms: _256  and  _258
REMARK   92  A    between atoms: _258  and  _259
REMARK   93  A    between atoms: _258  and  _261
REMARK   94  A    between atoms: _261  and  _262
REMARK   95  A    between atoms: _262  and  _263
REMARK   96  A    between atoms: _265  and  _267
REMARK   97  A    between atoms: _267  and  _268
REMARK   98  A    between atoms: _270  and  _272
REMARK   99  A    between atoms: _272  and  _273
REMARK  100  A    between atoms: _275  and  _277
REMARK  101  A    between atoms: _277  and  _278
REMARK  102  A    between atoms: _280  and  _282
REMARK  103  A    between atoms: _282  and  _283
REMARK  104  A    between atoms: _285  and  _287
REMARK  105  A    between atoms: _287  and  _288
REMARK  106  A    between atoms: _287  and  _290
REMARK  107  A    between atoms: _290  and  _291
REMARK  108  A    between atoms: _296  and  _297
REMARK                            x       y       z     vdW  Elec       q    Type
REMARK                         _______ _______ _______ _____ _____    ______ ____
ROOT
ATOM      1  O   HOH     1       8.317  38.317  -2.950  0.00  0.00    +0.000 OA
ENDROOT
TORSDOF 0
REMARK  Name = ../refined-set-2016/3mz6/3mz6_pocket.pdb
REMARK  108 active torsions:
REMARK  status: ('A' for Active; 'I' for Inactive)
REMARK    1  A    between atoms: _1  and  _3
REMARK    2  A    between atoms: _3  and  _4
REMARK    3  A    between atoms: _3  and  _6
REMARK    4  A    between atoms: _6  and  _7
REMARK    5  A    between atoms: _7  and  _8
REMARK    6  A    between atoms: _8  and  _9
REMARK    7  A    between atoms: _18  and  _20
REMARK    8  A    between atoms: _20  and  _21
REMARK    9  A    between atoms: _20  and  _23
REMARK   10  A    between atoms: _23  and  _24
REMARK   11  A    between atoms: _29  and  _30
REMARK   12  A    between atoms: _32  and  _34
REMARK   13  A    between atoms: _34  and  _35
REMARK   14  A    between atoms: _34  and  _37
REMARK   15  A    between atoms: _37  and  _38
REMARK   16  A    between atoms: _41  and  _43
REMARK   17  A    between atoms: _43  and  _44
REMARK   18  A    between atoms: _46  and  _48
REMARK   19  A    between atoms: _48  and  _49
REMARK   20  A    between atoms: _48  and  _51
REMARK   21  A    between atoms: _51  and  _52
REMARK   22  A    between atoms: _62  and  _64
REMARK   23  A    between atoms: _64  and  _65
REMARK   24  A    between atoms: _64  and  _67
REMARK   25  A    between atoms: _67  and  _68
REMARK   26  A    between atoms: _73  and  _75
REMARK   27  A    between atoms: _75  and  _76
REMARK   28  A    between atoms: _75  and  _78
REMARK   29  A    between atoms: _78  and  _79
REMARK   30  A    between atoms: _84  and  _86
REMARK   31  A    between atoms: _86  and  _87
REMARK   32  A    between atoms: _86  and  _89
REMARK   33  A    between atoms: _89  and  _90
REMARK   34  A    between atoms: _92  and  _94
REMARK   35  A    between atoms: _94  and  _95
REMARK   36  A    between atoms: _97  and  _99
REMARK   37  A    between atoms: _99  and  _100
REMARK   38  A    between atoms: _99  and  _102
REMARK   39  A    between atoms: _102  and  _103
REMARK   40  A    between atoms: _109  and  _111
REMARK   41  A    between atoms: _111  and  _112
REMARK   42  A    between atoms: _111  and  _114
REMARK   43  A    between atoms: _116  and  _118
REMARK   44  A    between atoms: _118  and  _119
REMARK   45  A    between atoms: _118  and  _121
REMARK   46  A    between atoms: _121  and  _122
REMARK   47  A    between atoms: _125  and  _127
REMARK   48  A    between atoms: _136  and  _139
REMARK   49  A    between atoms: _139  and  _140
REMARK   50  A    between atoms: _145  and  _146
REMARK   51  A    between atoms: _154  and  _156
REMARK   52  A    between atoms: _156  and  _157
REMARK   53  A    between atoms: _156  and  _159
REMARK   54  A    between atoms: _159  and  _160
REMARK   55  A    between atoms: _165  and  _167
REMARK   56  A    between atoms: _167  and  _168
REMARK   57  A    between atoms: _170  and  _172
REMARK   58  A    between atoms: _172  and  _173
REMARK   59  A    between atoms: _172  and  _175
REMARK   60  A    between atoms: _175  and  _176
REMARK   61  A    between atoms: _179  and  _181
REMARK   62  A    between atoms: _181  and  _182
REMARK   63  A    between atoms: _184  and  _186
REMARK   64  A    between atoms: _186  and  _187
REMARK   65  A    between atoms: _186  and  _189
REMARK   66  A    between atoms: _189  and  _190
REMARK   67  A    between atoms: _196  and  _198
REMARK   68  A    between atoms: _198  and  _199
REMARK   69  A    between atoms: _198  and  _201
REMARK   70  A    between atoms: _201  and  _202
REMARK   71  A    between atoms: _209  and  _210
REMARK   72  A    between atoms: _215  and  _217
REMARK   73  A    between atoms: _217  and  _218
REMARK   74  A    between atoms: _217  and  _220
REMARK   75  A    between atoms: _220  and  _221
REMARK   76  A    between atoms: _221  and  _222
REMARK   77  A    between atoms: _227  and  _229
REMARK   78  A    between atoms: _229  and  _230
REMARK   79  A    between atoms: _232  and  _234
REMARK   80  A    between atoms: _234  and  _235
REMARK   81  A    between atoms: _238  and  _240
REMARK   82  A    between atoms: _240  and  _241
REMARK   83  A    between atoms: _240  and  _243
REMARK   84  A    between atoms: _243  and  _244
REMARK   85  A    between atoms: _244  and  _246
REMARK   86  A    between atoms: _246  and  FE_299
REMARK   87  A    between atoms: _247  and  _249
REMARK   88  A    between atoms: _249  and  _250
REMARK   89  A    between atoms: _249  and  _252
REMARK   90  A    between atoms: _252  and  _253
REMARK   91  A    between atoms: _256  and  _258
REMARK   92  A    between atoms: _258  and  _259
REMARK   93  A    between atoms: _258  and  _261
REMARK   94  A    between atoms: _261  and  _262
REMARK   95  A    between atoms: _262  and  _263
REMARK   96  A    between atoms: _265  and  _267
REMARK   97  A    between atoms: _267  and  _268
REMARK   98  A    between atoms: _270  and  _272
REMARK   99  A    between atoms: _272  and  _273
REMARK  100  A    between atoms: _275  and  _277
REMARK  101  A    between atoms: _277  and  _278
REMARK  102  A    between atoms: _280  and  _282
REMARK  103  A    between atoms: _282  and  _283
REMARK  104  A    between atoms: _285  and  _287
REMARK  105  A    between atoms: _287  and  _288
REMARK  106  A    between atoms: _287  and  _290
REMARK  107  A    between atoms: _290  and  _291
REMARK  108  A    between atoms: _296  and  _297
REMARK                            x       y       z     vdW  Elec       q    Type
REMARK                         _______ _______ _______ _____ _____    ______ ____
ROOT
ATOM      1  O   HOH     1       8.054  41.691   0.746  0.00  0.00    +0.000 OA
ENDROOT
TORSDOF 0
REMARK  Name = ../refined-set-2016/3mz6/3mz6_pocket.pdb
REMARK  108 active torsions:
REMARK  status: ('A' for Active; 'I' for Inactive)
REMARK    1  A    between atoms: _1  and  _3
REMARK    2  A    between atoms: _3  and  _4
REMARK    3  A    between atoms: _3  and  _6
REMARK    4  A    between atoms: _6  and  _7
REMARK    5  A    between atoms: _7  and  _8
REMARK    6  A    between atoms: _8  and  _9
REMARK    7  A    between atoms: _18  and  _20
REMARK    8  A    between atoms: _20  and  _21
REMARK    9  A    between atoms: _20  and  _23
REMARK   10  A    between atoms: _23  and  _24
REMARK   11  A    between atoms: _29  and  _30
REMARK   12  A    between atoms: _32  and  _34
REMARK   13  A    between atoms: _34  and  _35
REMARK   14  A    between atoms: _34  and  _37
REMARK   15  A    between atoms: _37  and  _38
REMARK   16  A    between atoms: _41  and  _43
REMARK   17  A    between atoms: _43  and  _44
REMARK   18  A    between atoms: _46  and  _48
REMARK   19  A    between atoms: _48  and  _49
REMARK   20  A    between atoms: _48  and  _51
REMARK   21  A    between atoms: _51  and  _52
REMARK   22  A    between atoms: _62  and  _64
REMARK   23  A    between atoms: _64  and  _65
REMARK   24  A    between atoms: _64  and  _67
REMARK   25  A    between atoms: _67  and  _68
REMARK   26  A    between atoms: _73  and  _75
REMARK   27  A    between atoms: _75  and  _76
REMARK   28  A    between atoms: _75  and  _78
REMARK   29  A    between atoms: _78  and  _79
REMARK   30  A    between atoms: _84  and  _86
REMARK   31  A    between atoms: _86  and  _87
REMARK   32  A    between atoms: _86  and  _89
REMARK   33  A    between atoms: _89  and  _90
REMARK   34  A    between atoms: _92  and  _94
REMARK   35  A    between atoms: _94  and  _95
REMARK   36  A    between atoms: _97  and  _99
REMARK   37  A    between atoms: _99  and  _100
REMARK   38  A    between atoms: _99  and  _102
REMARK   39  A    between atoms: _102  and  _103
REMARK   40  A    between atoms: _109  and  _111
REMARK   41  A    between atoms: _111  and  _112
REMARK   42  A    between atoms: _111  and  _114
REMARK   43  A    between atoms: _116  and  _118
REMARK   44  A    between atoms: _118  and  _119
REMARK   45  A    between atoms: _118  and  _121
REMARK   46  A    between atoms: _121  and  _122
REMARK   47  A    between atoms: _125  and  _127
REMARK   48  A    between atoms: _136  and  _139
REMARK   49  A    between atoms: _139  and  _140
REMARK   50  A    between atoms: _145  and  _146
REMARK   51  A    between atoms: _154  and  _156
REMARK   52  A    between atoms: _156  and  _157
REMARK   53  A    between atoms: _156  and  _159
REMARK   54  A    between atoms: _159  and  _160
REMARK   55  A    between atoms: _165  and  _167
REMARK   56  A    between atoms: _167  and  _168
REMARK   57  A    between atoms: _170  and  _172
REMARK   58  A    between atoms: _172  and  _173
REMARK   59  A    between atoms: _172  and  _175
REMARK   60  A    between atoms: _175  and  _176
REMARK   61  A    between atoms: _179  and  _181
REMARK   62  A    between atoms: _181  and  _182
REMARK   63  A    between atoms: _184  and  _186
REMARK   64  A    between atoms: _186  and  _187
REMARK   65  A    between atoms: _186  and  _189
REMARK   66  A    between atoms: _189  and  _190
REMARK   67  A    between atoms: _196  and  _198
REMARK   68  A    between atoms: _198  and  _199
REMARK   69  A    between atoms: _198  and  _201
REMARK   70  A    between atoms: _201  and  _202
REMARK   71  A    between atoms: _209  and  _210
REMARK   72  A    between atoms: _215  and  _217
REMARK   73  A    between atoms: _217  and  _218
REMARK   74  A    between atoms: _217  and  _220
REMARK   75  A    between atoms: _220  and  _221
REMARK   76  A    between atoms: _221  and  _222
REMARK   77  A    between atoms: _227  and  _229
REMARK   78  A    between atoms: _229  and  _230
REMARK   79  A    between atoms: _232  and  _234
REMARK   80  A    between atoms: _234  and  _235
REMARK   81  A    between atoms: _238  and  _240
REMARK   82  A    between atoms: _240  and  _241
REMARK   83  A    between atoms: _240  and  _243
REMARK   84  A    between atoms: _243  and  _244
REMARK   85  A    between atoms: _244  and  _246
REMARK   86  A    between atoms: _246  and  FE_299
REMARK   87  A    between atoms: _247  and  _249
REMARK   88  A    between atoms: _249  and  _250
REMARK   89  A    between atoms: _249  and  _252
REMARK   90  A    between atoms: _252  and  _253
REMARK   91  A    between atoms: _256  and  _258
REMARK   92  A    between atoms: _258  and  _259
REMARK   93  A    between atoms: _258  and  _261
REMARK   94  A    between atoms: _261  and  _262
REMARK   95  A    between atoms: _262  and  _263
REMARK   96  A    between atoms: _265  and  _267
REMARK   97  A    between atoms: _267  and  _268
REMARK   98  A    between atoms: _270  and  _272
REMARK   99  A    between atoms: _272  and  _273
REMARK  100  A    between atoms: _275  and  _277
REMARK  101  A    between atoms: _277  and  _278
REMARK  102  A    between atoms: _280  and  _282
REMARK  103  A    between atoms: _282  and  _283
REMARK  104  A    between atoms: _285  and  _287
REMARK  105  A    between atoms: _287  and  _288
REMARK  106  A    between atoms: _287  and  _290
REMARK  107  A    between atoms: _290  and  _291
REMARK  108  A    between atoms: _296  and  _297
REMARK                            x       y       z     vdW  Elec       q    Type
REMARK                         _______ _______ _______ _____ _____    ______ ____
ROOT
ATOM      1  O   HOH     1      -0.364  44.349   5.327  0.00  0.00    +0.000 OA
ENDROOT
TORSDOF 0
