REMARK  Name = ../refined-set-2016/2j75/2j75_pocket.pdb
REMARK  151 active torsions:
REMARK  status: ('A' for Active; 'I' for Inactive)
REMARK    1  A    between atoms: _1  and  _3
REMARK    2  A    between atoms: _3  and  _4
REMARK    3  A    between atoms: _7  and  _9
REMARK    4  A    between atoms: _9  and  _10
REMARK    5  A    between atoms: _9  and  _12
REMARK    6  A    between atoms: _12  and  _13
REMARK    7  A    between atoms: _16  and  _18
REMARK    8  A    between atoms: _18  and  _19
REMARK    9  A    between atoms: _22  and  _24
REMARK   10  A    between atoms: _24  and  _25
REMARK   11  A    between atoms: _24  and  _27
REMARK   12  A    between atoms: _27  and  _28
REMARK   13  A    between atoms: _30  and  _32
REMARK   14  A    between atoms: _32  and  _33
REMARK   15  A    between atoms: _32  and  _35
REMARK   16  A    between atoms: _35  and  _36
REMARK   17  A    between atoms: _36  and  _37
REMARK   18  A    between atoms: _42  and  _44
REMARK   19  A    between atoms: _44  and  _45
REMARK   20  A    between atoms: _44  and  _47
REMARK   21  A    between atoms: _47  and  _48
REMARK   22  A    between atoms: _48  and  _49
REMARK   23  A    between atoms: _49  and  _50
REMARK   24  A    between atoms: _59  and  _61
REMARK   25  A    between atoms: _61  and  _62
REMARK   26  A    between atoms: _61  and  _64
REMARK   27  A    between atoms: _64  and  _65
REMARK   28  A    between atoms: _68  and  _70
REMARK   29  A    between atoms: _70  and  _71
REMARK   30  A    between atoms: _70  and  _73
REMARK   31  A    between atoms: _73  and  _74
REMARK   32  A    between atoms: _79  and  _81
REMARK   33  A    between atoms: _81  and  _82
REMARK   34  A    between atoms: _81  and  _84
REMARK   35  A    between atoms: _84  and  _85
REMARK   36  A    between atoms: _95  and  _97
REMARK   37  A    between atoms: _97  and  _98
REMARK   38  A    between atoms: _97  and  _100
REMARK   39  A    between atoms: _100  and  _101
REMARK   40  A    between atoms: _106  and  _108
REMARK   41  A    between atoms: _108  and  _109
REMARK   42  A    between atoms: _108  and  _111
REMARK   43  A    between atoms: _111  and  _112
REMARK   44  A    between atoms: _112  and  _113
REMARK   45  A    between atoms: _116  and  _118
REMARK   46  A    between atoms: _118  and  _119
REMARK   47  A    between atoms: _118  and  _121
REMARK   48  A    between atoms: _124  and  _126
REMARK   49  A    between atoms: _126  and  _127
REMARK   50  A    between atoms: _126  and  _129
REMARK   51  A    between atoms: _129  and  _130
REMARK   52  A    between atoms: _135  and  _137
REMARK   53  A    between atoms: _137  and  _138
REMARK   54  A    between atoms: _137  and  _140
REMARK   55  A    between atoms: _143  and  _145
REMARK   56  A    between atoms: _145  and  _146
REMARK   57  A    between atoms: _145  and  _148
REMARK   58  A    between atoms: _148  and  _149
REMARK   59  A    between atoms: _155  and  _157
REMARK   60  A    between atoms: _157  and  _158
REMARK   61  A    between atoms: _157  and  _160
REMARK   62  A    between atoms: _160  and  _161
REMARK   63  A    between atoms: _166  and  _168
REMARK   64  A    between atoms: _168  and  _169
REMARK   65  A    between atoms: _168  and  _171
REMARK   66  A    between atoms: _171  and  _172
REMARK   67  A    between atoms: _177  and  _179
REMARK   68  A    between atoms: _179  and  _180
REMARK   69  A    between atoms: _179  and  _182
REMARK   70  A    between atoms: _182  and  _183
REMARK   71  A    between atoms: _188  and  _190
REMARK   72  A    between atoms: _190  and  _191
REMARK   73  A    between atoms: _190  and  _193
REMARK   74  A    between atoms: _193  and  _194
REMARK   75  A    between atoms: _199  and  _200
REMARK   76  A    between atoms: _202  and  _204
REMARK   77  A    between atoms: _204  and  _205
REMARK   78  A    between atoms: _204  and  _207
REMARK   79  A    between atoms: _207  and  _208
REMARK   80  A    between atoms: _213  and  _214
REMARK   81  A    between atoms: _216  and  _218
REMARK   82  A    between atoms: _218  and  _219
REMARK   83  A    between atoms: _218  and  _221
REMARK   84  A    between atoms: _221  and  _222
REMARK   85  A    between atoms: _222  and  _223
REMARK   86  A    between atoms: _225  and  _227
REMARK   87  A    between atoms: _227  and  _228
REMARK   88  A    between atoms: _227  and  _230
REMARK   89  A    between atoms: _230  and  _231
REMARK   90  A    between atoms: _241  and  _243
REMARK   91  A    between atoms: _243  and  _244
REMARK   92  A    between atoms: _243  and  _246
REMARK   93  A    between atoms: _246  and  _247
REMARK   94  A    between atoms: _250  and  _252
REMARK   95  A    between atoms: _252  and  _253
REMARK   96  A    between atoms: _252  and  _255
REMARK   97  A    between atoms: _255  and  _256
REMARK   98  A    between atoms: _256  and  _257
REMARK   99  A    between atoms: _260  and  _262
REMARK  100  A    between atoms: _262  and  _263
REMARK  101  A    between atoms: _262  and  _265
REMARK  102  A    between atoms: _265  and  _266
REMARK  103  A    between atoms: _271  and  _273
REMARK  104  A    between atoms: _273  and  _274
REMARK  105  A    between atoms: _276  and  _278
REMARK  106  A    between atoms: _278  and  _279
REMARK  107  A    between atoms: _282  and  _284
REMARK  108  A    between atoms: _284  and  _285
REMARK  109  A    between atoms: _288  and  _290
REMARK  110  A    between atoms: _290  and  _291
REMARK  111  A    between atoms: _290  and  _293
REMARK  112  A    between atoms: _293  and  _294
REMARK  113  A    between atoms: _304  and  _306
REMARK  114  A    between atoms: _306  and  _307
REMARK  115  A    between atoms: _306  and  _309
REMARK  116  A    between atoms: _309  and  _310
REMARK  117  A    between atoms: _312  and  _314
REMARK  118  A    between atoms: _314  and  _315
REMARK  119  A    between atoms: _314  and  _317
REMARK  120  A    between atoms: _317  and  _318
REMARK  121  A    between atoms: _323  and  _325
REMARK  122  A    between atoms: _325  and  _326
REMARK  123  A    between atoms: _325  and  _328
REMARK  124  A    between atoms: _328  and  _329
REMARK  125  A    between atoms: _335  and  _337
REMARK  126  A    between atoms: _337  and  _338
REMARK  127  A    between atoms: _337  and  _340
REMARK  128  A    between atoms: _340  and  _341
REMARK  129  A    between atoms: _341  and  _342
REMARK  130  A    between atoms: _345  and  _347
REMARK  131  A    between atoms: _347  and  _348
REMARK  132  A    between atoms: _347  and  _350
REMARK  133  A    between atoms: _350  and  _351
REMARK  134  A    between atoms: _361  and  _363
REMARK  135  A    between atoms: _363  and  _364
REMARK  136  A    between atoms: _367  and  _369
REMARK  137  A    between atoms: _369  and  _370
REMARK  138  A    between atoms: _369  and  _372
REMARK  139  A    between atoms: _372  and  _373
REMARK  140  A    between atoms: _373  and  _374
REMARK  141  A    between atoms: _377  and  _379
REMARK  142  A    between atoms: _379  and  _380
REMARK  143  A    between atoms: _379  and  _382
REMARK  144  A    between atoms: _382  and  _383
REMARK  145  A    between atoms: _383  and  _384
REMARK  146  A    between atoms: _384  and  _385
REMARK  147  A    between atoms: _385  and  _386
REMARK  148  A    between atoms: _390  and  _392
REMARK  149  A    between atoms: _392  and  _393
REMARK  150  A    between atoms: _392  and  _395
REMARK  151  A    between atoms: _395  and  _396
REMARK                            x       y       z     vdW  Elec       q    Type
REMARK                         _______ _______ _______ _____ _____    ______ ____
ROOT
ATOM      1  C   THR A   2      -0.354  18.043   5.003  0.00  0.00    +0.243 C 
ATOM      2  O   THR A   2       0.118  18.619   6.013  0.00  0.00    -0.273 OA
ATOM      3  N   ALA A   3       0.369  17.262   4.200  0.00  0.00    -0.297 N 
ATOM      4  H   ALA A   3      -0.119  16.728   3.453  0.00  0.00    +0.150 HD
ENDROOT
BRANCH   3   5
ATOM      5  CA  ALA A   3       1.848  17.122   4.328  0.00  0.00    +0.149 C 
ATOM      6  CB  ALA A   3       2.234  15.873   5.084  0.00  0.00    +0.031 C 
BRANCH   5   7
ATOM      7  C   ALA A   3       2.402  17.060   2.914  0.00  0.00    +0.241 C 
ATOM      8  N   SER A   4       3.589  17.617   2.753  0.00  0.00    -0.296 N 
ATOM      9  H   SER A   4       4.094  17.928   3.608  0.00  0.00    +0.150 HD
ATOM     10  O   ALA A   3       1.766  16.511   2.008  0.00  0.00    -0.273 OA
BRANCH   8  11
ATOM     11  CA  SER A   4       4.238  17.827   1.483  0.00  0.00    +0.166 C 
BRANCH  11  12
ATOM     12  C   SER A   4       4.339  16.579   0.602  0.00  0.00    +0.229 C 
ATOM     13  O   SER A   4       3.911  16.600  -0.556  0.00  0.00    -0.286 OA
ENDBRANCH  11  12
BRANCH  11  14
ATOM     14  CB  SER A   4       5.627  18.400   1.759  0.00  0.00    +0.165 C 
BRANCH  14  15
ATOM     15  OG  SER A   4       6.359  17.614   2.705  0.00  0.00    -0.380 OA
ATOM     16  H   SER A   4       5.863  17.584   3.561  0.00  0.00    +0.211 HD
ENDBRANCH  14  15
ENDBRANCH  11  14
ENDBRANCH   8  11
ENDBRANCH   5   7
ENDBRANCH   3   5
BRANCH   1  17
ATOM     17  CA  THR A   2      -1.848  18.187   4.626  0.00  0.00    +0.176 C 
BRANCH  17  20
ATOM     18  C   ALA A   1      -3.692  18.863   6.114  0.00  0.00    +0.238 C 
ATOM     19  O   ALA A   1      -4.475  17.987   5.702  0.00  0.00    -0.274 OA
ATOM     20  N   THR A   2      -2.455  19.049   5.635  0.00  0.00    -0.295 N 
ATOM     21  H   THR A   2      -1.899  19.848   6.001  0.00  0.00    +0.150 HD
BRANCH  18  22
ATOM     22  CA  ALA A   1      -4.091  19.802   7.246  0.00  0.00    +0.145 C 
ATOM     23  CB  ALA A   1      -3.740  19.192   8.584  0.00  0.00    +0.028 C 
BRANCH  22  24
ATOM     24  N   ALA A   1      -5.521  20.147   7.213  0.00  0.00    -0.238 NA
ATOM     25  H   ALA A   1      -6.223  19.396   7.056  0.00  0.00    +0.142 HD
ENDBRANCH  22  24
ENDBRANCH  18  22
ENDBRANCH  17  20
BRANCH  17  26
ATOM     26  CB  THR A   2      -1.912  18.806   3.216  0.00  0.00    +0.137 C 
ATOM     27  CG2 THR A   2      -3.390  19.025   2.727  0.00  0.00    +0.034 C 
BRANCH  26  28
ATOM     28  OG1 THR A   2      -1.230  20.064   3.216  0.00  0.00    -0.382 OA
ATOM     29  HG1 THR A   2      -0.284  19.925   3.474  0.00  0.00    +0.210 HD
ENDBRANCH  26  28
ENDBRANCH  17  26
ENDBRANCH   1  17
TORSDOF 12
REMARK  Name = ../refined-set-2016/2j75/2j75_pocket.pdb
REMARK  151 active torsions:
REMARK  status: ('A' for Active; 'I' for Inactive)
REMARK    1  A    between atoms: _1  and  _3
REMARK    2  A    between atoms: _3  and  _4
REMARK    3  A    between atoms: _7  and  _9
REMARK    4  A    between atoms: _9  and  _10
REMARK    5  A    between atoms: _9  and  _12
REMARK    6  A    between atoms: _12  and  _13
REMARK    7  A    between atoms: _16  and  _18
REMARK    8  A    between atoms: _18  and  _19
REMARK    9  A    between atoms: _22  and  _24
REMARK   10  A    between atoms: _24  and  _25
REMARK   11  A    between atoms: _24  and  _27
REMARK   12  A    between atoms: _27  and  _28
REMARK   13  A    between atoms: _30  and  _32
REMARK   14  A    between atoms: _32  and  _33
REMARK   15  A    between atoms: _32  and  _35
REMARK   16  A    between atoms: _35  and  _36
REMARK   17  A    between atoms: _36  and  _37
REMARK   18  A    between atoms: _42  and  _44
REMARK   19  A    between atoms: _44  and  _45
REMARK   20  A    between atoms: _44  and  _47
REMARK   21  A    between atoms: _47  and  _48
REMARK   22  A    between atoms: _48  and  _49
REMARK   23  A    between atoms: _49  and  _50
REMARK   24  A    between atoms: _59  and  _61
REMARK   25  A    between atoms: _61  and  _62
REMARK   26  A    between atoms: _61  and  _64
REMARK   27  A    between atoms: _64  and  _65
REMARK   28  A    between atoms: _68  and  _70
REMARK   29  A    between atoms: _70  and  _71
REMARK   30  A    between atoms: _70  and  _73
REMARK   31  A    between atoms: _73  and  _74
REMARK   32  A    between atoms: _79  and  _81
REMARK   33  A    between atoms: _81  and  _82
REMARK   34  A    between atoms: _81  and  _84
REMARK   35  A    between atoms: _84  and  _85
REMARK   36  A    between atoms: _95  and  _97
REMARK   37  A    between atoms: _97  and  _98
REMARK   38  A    between atoms: _97  and  _100
REMARK   39  A    between atoms: _100  and  _101
REMARK   40  A    between atoms: _106  and  _108
REMARK   41  A    between atoms: _108  and  _109
REMARK   42  A    between atoms: _108  and  _111
REMARK   43  A    between atoms: _111  and  _112
REMARK   44  A    between atoms: _112  and  _113
REMARK   45  A    between atoms: _116  and  _118
REMARK   46  A    between atoms: _118  and  _119
REMARK   47  A    between atoms: _118  and  _121
REMARK   48  A    between atoms: _124  and  _126
REMARK   49  A    between atoms: _126  and  _127
REMARK   50  A    between atoms: _126  and  _129
REMARK   51  A    between atoms: _129  and  _130
REMARK   52  A    between atoms: _135  and  _137
REMARK   53  A    between atoms: _137  and  _138
REMARK   54  A    between atoms: _137  and  _140
REMARK   55  A    between atoms: _143  and  _145
REMARK   56  A    between atoms: _145  and  _146
REMARK   57  A    between atoms: _145  and  _148
REMARK   58  A    between atoms: _148  and  _149
REMARK   59  A    between atoms: _155  and  _157
REMARK   60  A    between atoms: _157  and  _158
REMARK   61  A    between atoms: _157  and  _160
REMARK   62  A    between atoms: _160  and  _161
REMARK   63  A    between atoms: _166  and  _168
REMARK   64  A    between atoms: _168  and  _169
REMARK   65  A    between atoms: _168  and  _171
REMARK   66  A    between atoms: _171  and  _172
REMARK   67  A    between atoms: _177  and  _179
REMARK   68  A    between atoms: _179  and  _180
REMARK   69  A    between atoms: _179  and  _182
REMARK   70  A    between atoms: _182  and  _183
REMARK   71  A    between atoms: _188  and  _190
REMARK   72  A    between atoms: _190  and  _191
REMARK   73  A    between atoms: _190  and  _193
REMARK   74  A    between atoms: _193  and  _194
REMARK   75  A    between atoms: _199  and  _200
REMARK   76  A    between atoms: _202  and  _204
REMARK   77  A    between atoms: _204  and  _205
REMARK   78  A    between atoms: _204  and  _207
REMARK   79  A    between atoms: _207  and  _208
REMARK   80  A    between atoms: _213  and  _214
REMARK   81  A    between atoms: _216  and  _218
REMARK   82  A    between atoms: _218  and  _219
REMARK   83  A    between atoms: _218  and  _221
REMARK   84  A    between atoms: _221  and  _222
REMARK   85  A    between atoms: _222  and  _223
REMARK   86  A    between atoms: _225  and  _227
REMARK   87  A    between atoms: _227  and  _228
REMARK   88  A    between atoms: _227  and  _230
REMARK   89  A    between atoms: _230  and  _231
REMARK   90  A    between atoms: _241  and  _243
REMARK   91  A    between atoms: _243  and  _244
REMARK   92  A    between atoms: _243  and  _246
REMARK   93  A    between atoms: _246  and  _247
REMARK   94  A    between atoms: _250  and  _252
REMARK   95  A    between atoms: _252  and  _253
REMARK   96  A    between atoms: _252  and  _255
REMARK   97  A    between atoms: _255  and  _256
REMARK   98  A    between atoms: _256  and  _257
REMARK   99  A    between atoms: _260  and  _262
REMARK  100  A    between atoms: _262  and  _263
REMARK  101  A    between atoms: _262  and  _265
REMARK  102  A    between atoms: _265  and  _266
REMARK  103  A    between atoms: _271  and  _273
REMARK  104  A    between atoms: _273  and  _274
REMARK  105  A    between atoms: _276  and  _278
REMARK  106  A    between atoms: _278  and  _279
REMARK  107  A    between atoms: _282  and  _284
REMARK  108  A    between atoms: _284  and  _285
REMARK  109  A    between atoms: _288  and  _290
REMARK  110  A    between atoms: _290  and  _291
REMARK  111  A    between atoms: _290  and  _293
REMARK  112  A    between atoms: _293  and  _294
REMARK  113  A    between atoms: _304  and  _306
REMARK  114  A    between atoms: _306  and  _307
REMARK  115  A    between atoms: _306  and  _309
REMARK  116  A    between atoms: _309  and  _310
REMARK  117  A    between atoms: _312  and  _314
REMARK  118  A    between atoms: _314  and  _315
REMARK  119  A    between atoms: _314  and  _317
REMARK  120  A    between atoms: _317  and  _318
REMARK  121  A    between atoms: _323  and  _325
REMARK  122  A    between atoms: _325  and  _326
REMARK  123  A    between atoms: _325  and  _328
REMARK  124  A    between atoms: _328  and  _329
REMARK  125  A    between atoms: _335  and  _337
REMARK  126  A    between atoms: _337  and  _338
REMARK  127  A    between atoms: _337  and  _340
REMARK  128  A    between atoms: _340  and  _341
REMARK  129  A    between atoms: _341  and  _342
REMARK  130  A    between atoms: _345  and  _347
REMARK  131  A    between atoms: _347  and  _348
REMARK  132  A    between atoms: _347  and  _350
REMARK  133  A    between atoms: _350  and  _351
REMARK  134  A    between atoms: _361  and  _363
REMARK  135  A    between atoms: _363  and  _364
REMARK  136  A    between atoms: _367  and  _369
REMARK  137  A    between atoms: _369  and  _370
REMARK  138  A    between atoms: _369  and  _372
REMARK  139  A    between atoms: _372  and  _373
REMARK  140  A    between atoms: _373  and  _374
REMARK  141  A    between atoms: _377  and  _379
REMARK  142  A    between atoms: _379  and  _380
REMARK  143  A    between atoms: _379  and  _382
REMARK  144  A    between atoms: _382  and  _383
REMARK  145  A    between atoms: _383  and  _384
REMARK  146  A    between atoms: _384  and  _385
REMARK  147  A    between atoms: _385  and  _386
REMARK  148  A    between atoms: _390  and  _392
REMARK  149  A    between atoms: _392  and  _393
REMARK  150  A    between atoms: _392  and  _395
REMARK  151  A    between atoms: _395  and  _396
REMARK                            x       y       z     vdW  Elec       q    Type
REMARK                         _______ _______ _______ _____ _____    ______ ____
ROOT
ATOM      1  CB  GLN A   1       0.682  13.112   1.878  0.00  0.00    +0.035 C 
ENDROOT
BRANCH   1   2
ATOM      2  CA  GLN A   1       1.497  13.154   0.584  0.00  0.00    +0.134 C 
BRANCH   2   3
ATOM      3  N   GLN A   1       2.775  13.819   0.813  0.00  0.00    -0.239 NA
ATOM      4  H   GLN A   1       2.911  14.415   1.654  0.00  0.00    +0.142 HD
ENDBRANCH   2   3
BRANCH   2   5
ATOM      5  C   GLN A   1       0.705  13.805  -0.552  0.00  0.00    +0.224 C 
ATOM      6  O   GLN A   1      -0.070  13.116  -1.221  0.00  0.00    -0.287 OA
ENDBRANCH   2   5
ENDBRANCH   1   2
BRANCH   1   7
ATOM      7  CG  GLN A   1       1.407  12.351   2.962  0.00  0.00    +0.087 C 
BRANCH   7   8
ATOM      8  CD  GLN A   1       0.568  12.167   4.204  0.00  0.00    +0.219 C 
ATOM      9  OE1 GLN A   1       0.774  12.865   5.206  0.00  0.00    -0.275 OA
ATOM     10  NE2 GLN A   1      -0.364  11.205   4.162  0.00  0.00    -0.329 N 
ATOM     11 HE21 GLN A   1      -0.955  11.016   4.997  0.00  0.00    +0.145 HD
ATOM     12 HE22 GLN A   1      -0.497  10.647   3.294  0.00  0.00    +0.145 HD
ENDBRANCH   7   8
ENDBRANCH   1   7
TORSDOF 5
REMARK  Name = ../refined-set-2016/2j75/2j75_pocket.pdb
REMARK  151 active torsions:
REMARK  status: ('A' for Active; 'I' for Inactive)
REMARK    1  A    between atoms: _1  and  _3
REMARK    2  A    between atoms: _3  and  _4
REMARK    3  A    between atoms: _7  and  _9
REMARK    4  A    between atoms: _9  and  _10
REMARK    5  A    between atoms: _9  and  _12
REMARK    6  A    between atoms: _12  and  _13
REMARK    7  A    between atoms: _16  and  _18
REMARK    8  A    between atoms: _18  and  _19
REMARK    9  A    between atoms: _22  and  _24
REMARK   10  A    between atoms: _24  and  _25
REMARK   11  A    between atoms: _24  and  _27
REMARK   12  A    between atoms: _27  and  _28
REMARK   13  A    between atoms: _30  and  _32
REMARK   14  A    between atoms: _32  and  _33
REMARK   15  A    between atoms: _32  and  _35
REMARK   16  A    between atoms: _35  and  _36
REMARK   17  A    between atoms: _36  and  _37
REMARK   18  A    between atoms: _42  and  _44
REMARK   19  A    between atoms: _44  and  _45
REMARK   20  A    between atoms: _44  and  _47
REMARK   21  A    between atoms: _47  and  _48
REMARK   22  A    between atoms: _48  and  _49
REMARK   23  A    between atoms: _49  and  _50
REMARK   24  A    between atoms: _59  and  _61
REMARK   25  A    between atoms: _61  and  _62
REMARK   26  A    between atoms: _61  and  _64
REMARK   27  A    between atoms: _64  and  _65
REMARK   28  A    between atoms: _68  and  _70
REMARK   29  A    between atoms: _70  and  _71
REMARK   30  A    between atoms: _70  and  _73
REMARK   31  A    between atoms: _73  and  _74
REMARK   32  A    between atoms: _79  and  _81
REMARK   33  A    between atoms: _81  and  _82
REMARK   34  A    between atoms: _81  and  _84
REMARK   35  A    between atoms: _84  and  _85
REMARK   36  A    between atoms: _95  and  _97
REMARK   37  A    between atoms: _97  and  _98
REMARK   38  A    between atoms: _97  and  _100
REMARK   39  A    between atoms: _100  and  _101
REMARK   40  A    between atoms: _106  and  _108
REMARK   41  A    between atoms: _108  and  _109
REMARK   42  A    between atoms: _108  and  _111
REMARK   43  A    between atoms: _111  and  _112
REMARK   44  A    between atoms: _112  and  _113
REMARK   45  A    between atoms: _116  and  _118
REMARK   46  A    between atoms: _118  and  _119
REMARK   47  A    between atoms: _118  and  _121
REMARK   48  A    between atoms: _124  and  _126
REMARK   49  A    between atoms: _126  and  _127
REMARK   50  A    between atoms: _126  and  _129
REMARK   51  A    between atoms: _129  and  _130
REMARK   52  A    between atoms: _135  and  _137
REMARK   53  A    between atoms: _137  and  _138
REMARK   54  A    between atoms: _137  and  _140
REMARK   55  A    between atoms: _143  and  _145
REMARK   56  A    between atoms: _145  and  _146
REMARK   57  A    between atoms: _145  and  _148
REMARK   58  A    between atoms: _148  and  _149
REMARK   59  A    between atoms: _155  and  _157
REMARK   60  A    between atoms: _157  and  _158
REMARK   61  A    between atoms: _157  and  _160
REMARK   62  A    between atoms: _160  and  _161
REMARK   63  A    between atoms: _166  and  _168
REMARK   64  A    between atoms: _168  and  _169
REMARK   65  A    between atoms: _168  and  _171
REMARK   66  A    between atoms: _171  and  _172
REMARK   67  A    between atoms: _177  and  _179
REMARK   68  A    between atoms: _179  and  _180
REMARK   69  A    between atoms: _179  and  _182
REMARK   70  A    between atoms: _182  and  _183
REMARK   71  A    between atoms: _188  and  _190
REMARK   72  A    between atoms: _190  and  _191
REMARK   73  A    between atoms: _190  and  _193
REMARK   74  A    between atoms: _193  and  _194
REMARK   75  A    between atoms: _199  and  _200
REMARK   76  A    between atoms: _202  and  _204
REMARK   77  A    between atoms: _204  and  _205
REMARK   78  A    between atoms: _204  and  _207
REMARK   79  A    between atoms: _207  and  _208
REMARK   80  A    between atoms: _213  and  _214
REMARK   81  A    between atoms: _216  and  _218
REMARK   82  A    between atoms: _218  and  _219
REMARK   83  A    between atoms: _218  and  _221
REMARK   84  A    between atoms: _221  and  _222
REMARK   85  A    between atoms: _222  and  _223
REMARK   86  A    between atoms: _225  and  _227
REMARK   87  A    between atoms: _227  and  _228
REMARK   88  A    between atoms: _227  and  _230
REMARK   89  A    between atoms: _230  and  _231
REMARK   90  A    between atoms: _241  and  _243
REMARK   91  A    between atoms: _243  and  _244
REMARK   92  A    between atoms: _243  and  _246
REMARK   93  A    between atoms: _246  and  _247
REMARK   94  A    between atoms: _250  and  _252
REMARK   95  A    between atoms: _252  and  _253
REMARK   96  A    between atoms: _252  and  _255
REMARK   97  A    between atoms: _255  and  _256
REMARK   98  A    between atoms: _256  and  _257
REMARK   99  A    between atoms: _260  and  _262
REMARK  100  A    between atoms: _262  and  _263
REMARK  101  A    between atoms: _262  and  _265
REMARK  102  A    between atoms: _265  and  _266
REMARK  103  A    between atoms: _271  and  _273
REMARK  104  A    between atoms: _273  and  _274
REMARK  105  A    between atoms: _276  and  _278
REMARK  106  A    between atoms: _278  and  _279
REMARK  107  A    between atoms: _282  and  _284
REMARK  108  A    between atoms: _284  and  _285
REMARK  109  A    between atoms: _288  and  _290
REMARK  110  A    between atoms: _290  and  _291
REMARK  111  A    between atoms: _290  and  _293
REMARK  112  A    between atoms: _293  and  _294
REMARK  113  A    between atoms: _304  and  _306
REMARK  114  A    between atoms: _306  and  _307
REMARK  115  A    between atoms: _306  and  _309
REMARK  116  A    between atoms: _309  and  _310
REMARK  117  A    between atoms: _312  and  _314
REMARK  118  A    between atoms: _314  and  _315
REMARK  119  A    between atoms: _314  and  _317
REMARK  120  A    between atoms: _317  and  _318
REMARK  121  A    between atoms: _323  and  _325
REMARK  122  A    between atoms: _325  and  _326
REMARK  123  A    between atoms: _325  and  _328
REMARK  124  A    between atoms: _328  and  _329
REMARK  125  A    between atoms: _335  and  _337
REMARK  126  A    between atoms: _337  and  _338
REMARK  127  A    between atoms: _337  and  _340
REMARK  128  A    between atoms: _340  and  _341
REMARK  129  A    between atoms: _341  and  _342
REMARK  130  A    between atoms: _345  and  _347
REMARK  131  A    between atoms: _347  and  _348
REMARK  132  A    between atoms: _347  and  _350
REMARK  133  A    between atoms: _350  and  _351
REMARK  134  A    between atoms: _361  and  _363
REMARK  135  A    between atoms: _363  and  _364
REMARK  136  A    between atoms: _367  and  _369
REMARK  137  A    between atoms: _369  and  _370
REMARK  138  A    between atoms: _369  and  _372
REMARK  139  A    between atoms: _372  and  _373
REMARK  140  A    between atoms: _373  and  _374
REMARK  141  A    between atoms: _377  and  _379
REMARK  142  A    between atoms: _379  and  _380
REMARK  143  A    between atoms: _379  and  _382
REMARK  144  A    between atoms: _382  and  _383
REMARK  145  A    between atoms: _383  and  _384
REMARK  146  A    between atoms: _384  and  _385
REMARK  147  A    between atoms: _385  and  _386
REMARK  148  A    between atoms: _390  and  _392
REMARK  149  A    between atoms: _392  and  _393
REMARK  150  A    between atoms: _392  and  _395
REMARK  151  A    between atoms: _395  and  _396
REMARK                            x       y       z     vdW  Elec       q    Type
REMARK                         _______ _______ _______ _____ _____    ______ ____
ROOT
ATOM      1  NE  ARG A   1       0.423  20.014  11.441  0.00  0.00    -0.265 N 
ATOM      2  HE  ARG A   1       1.300  20.557  11.570  0.00  0.00    +0.259 HD
ATOM      3  CZ  ARG A   1       0.515  18.685  11.499  0.00  0.00    +0.342 C 
ATOM      4  NH2 ARG A   1       1.731  18.116  11.620  0.00  0.00    -0.292 N 
ATOM      5 HH21 ARG A   1       2.582  18.712  11.667  0.00  0.00    +0.255 HD
ATOM      6 HH22 ARG A   1       1.818  17.081  11.666  0.00  0.00    +0.255 HD
ATOM      7  NH1 ARG A   1      -0.570  17.918  11.452  0.00  0.00    -0.292 N 
ATOM      8 HH11 ARG A   1      -0.478  16.883  11.499  0.00  0.00    +0.255 HD
ATOM      9 HH12 ARG A   1      -1.511  18.353  11.369  0.00  0.00    +0.255 HD
ENDROOT
BRANCH   1  10
ATOM     10  CD  ARG A   1      -0.809  20.775  11.211  0.00  0.00    +0.174 C 
BRANCH  10  11
ATOM     11  CG  ARG A   1      -0.631  21.620   9.922  0.00  0.00    +0.045 C 
BRANCH  11  12
ATOM     12  CB  ARG A   1      -1.868  22.433   9.507  0.00  0.00    +0.029 C 
BRANCH  12  13
ATOM     13  CA  ARG A   1      -1.608  23.351   8.302  0.00  0.00    +0.133 C 
BRANCH  13  14
ATOM     14  N   ARG A   1      -2.829  23.969   7.818  0.00  0.00    -0.239 NA
ATOM     15  H   ARG A   1      -3.713  23.421   7.831  0.00  0.00    +0.142 HD
ENDBRANCH  13  14
BRANCH  13  16
ATOM     16  C   ARG A   1      -0.984  22.559   7.146  0.00  0.00    +0.224 C 
ATOM     17  O   ARG A   1      -1.606  21.639   6.590  0.00  0.00    -0.287 OA
ENDBRANCH  13  16
ENDBRANCH  12  13
ENDBRANCH  11  12
ENDBRANCH  10  11
ENDBRANCH   1  10
TORSDOF 6
REMARK  Name = ../refined-set-2016/2j75/2j75_pocket.pdb
REMARK  151 active torsions:
REMARK  status: ('A' for Active; 'I' for Inactive)
REMARK    1  A    between atoms: _1  and  _3
REMARK    2  A    between atoms: _3  and  _4
REMARK    3  A    between atoms: _7  and  _9
REMARK    4  A    between atoms: _9  and  _10
REMARK    5  A    between atoms: _9  and  _12
REMARK    6  A    between atoms: _12  and  _13
REMARK    7  A    between atoms: _16  and  _18
REMARK    8  A    between atoms: _18  and  _19
REMARK    9  A    between atoms: _22  and  _24
REMARK   10  A    between atoms: _24  and  _25
REMARK   11  A    between atoms: _24  and  _27
REMARK   12  A    between atoms: _27  and  _28
REMARK   13  A    between atoms: _30  and  _32
REMARK   14  A    between atoms: _32  and  _33
REMARK   15  A    between atoms: _32  and  _35
REMARK   16  A    between atoms: _35  and  _36
REMARK   17  A    between atoms: _36  and  _37
REMARK   18  A    between atoms: _42  and  _44
REMARK   19  A    between atoms: _44  and  _45
REMARK   20  A    between atoms: _44  and  _47
REMARK   21  A    between atoms: _47  and  _48
REMARK   22  A    between atoms: _48  and  _49
REMARK   23  A    between atoms: _49  and  _50
REMARK   24  A    between atoms: _59  and  _61
REMARK   25  A    between atoms: _61  and  _62
REMARK   26  A    between atoms: _61  and  _64
REMARK   27  A    between atoms: _64  and  _65
REMARK   28  A    between atoms: _68  and  _70
REMARK   29  A    between atoms: _70  and  _71
REMARK   30  A    between atoms: _70  and  _73
REMARK   31  A    between atoms: _73  and  _74
REMARK   32  A    between atoms: _79  and  _81
REMARK   33  A    between atoms: _81  and  _82
REMARK   34  A    between atoms: _81  and  _84
REMARK   35  A    between atoms: _84  and  _85
REMARK   36  A    between atoms: _95  and  _97
REMARK   37  A    between atoms: _97  and  _98
REMARK   38  A    between atoms: _97  and  _100
REMARK   39  A    between atoms: _100  and  _101
REMARK   40  A    between atoms: _106  and  _108
REMARK   41  A    between atoms: _108  and  _109
REMARK   42  A    between atoms: _108  and  _111
REMARK   43  A    between atoms: _111  and  _112
REMARK   44  A    between atoms: _112  and  _113
REMARK   45  A    between atoms: _116  and  _118
REMARK   46  A    between atoms: _118  and  _119
REMARK   47  A    between atoms: _118  and  _121
REMARK   48  A    between atoms: _124  and  _126
REMARK   49  A    between atoms: _126  and  _127
REMARK   50  A    between atoms: _126  and  _129
REMARK   51  A    between atoms: _129  and  _130
REMARK   52  A    between atoms: _135  and  _137
REMARK   53  A    between atoms: _137  and  _138
REMARK   54  A    between atoms: _137  and  _140
REMARK   55  A    between atoms: _143  and  _145
REMARK   56  A    between atoms: _145  and  _146
REMARK   57  A    between atoms: _145  and  _148
REMARK   58  A    between atoms: _148  and  _149
REMARK   59  A    between atoms: _155  and  _157
REMARK   60  A    between atoms: _157  and  _158
REMARK   61  A    between atoms: _157  and  _160
REMARK   62  A    between atoms: _160  and  _161
REMARK   63  A    between atoms: _166  and  _168
REMARK   64  A    between atoms: _168  and  _169
REMARK   65  A    between atoms: _168  and  _171
REMARK   66  A    between atoms: _171  and  _172
REMARK   67  A    between atoms: _177  and  _179
REMARK   68  A    between atoms: _179  and  _180
REMARK   69  A    between atoms: _179  and  _182
REMARK   70  A    between atoms: _182  and  _183
REMARK   71  A    between atoms: _188  and  _190
REMARK   72  A    between atoms: _190  and  _191
REMARK   73  A    between atoms: _190  and  _193
REMARK   74  A    between atoms: _193  and  _194
REMARK   75  A    between atoms: _199  and  _200
REMARK   76  A    between atoms: _202  and  _204
REMARK   77  A    between atoms: _204  and  _205
REMARK   78  A    between atoms: _204  and  _207
REMARK   79  A    between atoms: _207  and  _208
REMARK   80  A    between atoms: _213  and  _214
REMARK   81  A    between atoms: _216  and  _218
REMARK   82  A    between atoms: _218  and  _219
REMARK   83  A    between atoms: _218  and  _221
REMARK   84  A    between atoms: _221  and  _222
REMARK   85  A    between atoms: _222  and  _223
REMARK   86  A    between atoms: _225  and  _227
REMARK   87  A    between atoms: _227  and  _228
REMARK   88  A    between atoms: _227  and  _230
REMARK   89  A    between atoms: _230  and  _231
REMARK   90  A    between atoms: _241  and  _243
REMARK   91  A    between atoms: _243  and  _244
REMARK   92  A    between atoms: _243  and  _246
REMARK   93  A    between atoms: _246  and  _247
REMARK   94  A    between atoms: _250  and  _252
REMARK   95  A    between atoms: _252  and  _253
REMARK   96  A    between atoms: _252  and  _255
REMARK   97  A    between atoms: _255  and  _256
REMARK   98  A    between atoms: _256  and  _257
REMARK   99  A    between atoms: _260  and  _262
REMARK  100  A    between atoms: _262  and  _263
REMARK  101  A    between atoms: _262  and  _265
REMARK  102  A    between atoms: _265  and  _266
REMARK  103  A    between atoms: _271  and  _273
REMARK  104  A    between atoms: _273  and  _274
REMARK  105  A    between atoms: _276  and  _278
REMARK  106  A    between atoms: _278  and  _279
REMARK  107  A    between atoms: _282  and  _284
REMARK  108  A    between atoms: _284  and  _285
REMARK  109  A    between atoms: _288  and  _290
REMARK  110  A    between atoms: _290  and  _291
REMARK  111  A    between atoms: _290  and  _293
REMARK  112  A    between atoms: _293  and  _294
REMARK  113  A    between atoms: _304  and  _306
REMARK  114  A    between atoms: _306  and  _307
REMARK  115  A    between atoms: _306  and  _309
REMARK  116  A    between atoms: _309  and  _310
REMARK  117  A    between atoms: _312  and  _314
REMARK  118  A    between atoms: _314  and  _315
REMARK  119  A    between atoms: _314  and  _317
REMARK  120  A    between atoms: _317  and  _318
REMARK  121  A    between atoms: _323  and  _325
REMARK  122  A    between atoms: _325  and  _326
REMARK  123  A    between atoms: _325  and  _328
REMARK  124  A    between atoms: _328  and  _329
REMARK  125  A    between atoms: _335  and  _337
REMARK  126  A    between atoms: _337  and  _338
REMARK  127  A    between atoms: _337  and  _340
REMARK  128  A    between atoms: _340  and  _341
REMARK  129  A    between atoms: _341  and  _342
REMARK  130  A    between atoms: _345  and  _347
REMARK  131  A    between atoms: _347  and  _348
REMARK  132  A    between atoms: _347  and  _350
REMARK  133  A    between atoms: _350  and  _351
REMARK  134  A    between atoms: _361  and  _363
REMARK  135  A    between atoms: _363  and  _364
REMARK  136  A    between atoms: _367  and  _369
REMARK  137  A    between atoms: _369  and  _370
REMARK  138  A    between atoms: _369  and  _372
REMARK  139  A    between atoms: _372  and  _373
REMARK  140  A    between atoms: _373  and  _374
REMARK  141  A    between atoms: _377  and  _379
REMARK  142  A    between atoms: _379  and  _380
REMARK  143  A    between atoms: _379  and  _382
REMARK  144  A    between atoms: _382  and  _383
REMARK  145  A    between atoms: _383  and  _384
REMARK  146  A    between atoms: _384  and  _385
REMARK  147  A    between atoms: _385  and  _386
REMARK  148  A    between atoms: _390  and  _392
REMARK  149  A    between atoms: _392  and  _393
REMARK  150  A    between atoms: _392  and  _395
REMARK  151  A    between atoms: _395  and  _396
REMARK                            x       y       z     vdW  Elec       q    Type
REMARK                         _______ _______ _______ _____ _____    ______ ____
ROOT
ATOM      1  CA  THR A   1       5.081  21.812   9.922  0.00  0.00    +0.160 C 
ENDROOT
BRANCH   1   2
ATOM      2  N   THR A   1       4.343  22.960   9.400  0.00  0.00    -0.237 NA
ATOM      3  H   THR A   1       3.700  22.805   8.597  0.00  0.00    +0.142 HD
ENDBRANCH   1   2
BRANCH   1   4
ATOM      4  CB  THR A   1       4.342  20.479   9.653  0.00  0.00    +0.134 C 
ATOM      5  CG2 THR A   1       5.031  19.325  10.382  0.00  0.00    +0.034 C 
BRANCH   4   6
ATOM      6  OG1 THR A   1       3.001  20.578  10.148  0.00  0.00    -0.383 OA
ATOM      7  HG1 THR A   1       2.524  19.727   9.978  0.00  0.00    +0.210 HD
ENDBRANCH   4   6
ENDBRANCH   1   4
BRANCH   1   8
ATOM      8  C   THR A   1       6.448  21.750   9.244  0.00  0.00    +0.227 C 
ATOM      9  O   THR A   1       6.545  21.589   8.045  0.00  0.00    -0.287 OA
ENDBRANCH   1   8
TORSDOF 4
REMARK  Name = ../refined-set-2016/2j75/2j75_pocket.pdb
REMARK  151 active torsions:
REMARK  status: ('A' for Active; 'I' for Inactive)
REMARK    1  A    between atoms: _1  and  _3
REMARK    2  A    between atoms: _3  and  _4
REMARK    3  A    between atoms: _7  and  _9
REMARK    4  A    between atoms: _9  and  _10
REMARK    5  A    between atoms: _9  and  _12
REMARK    6  A    between atoms: _12  and  _13
REMARK    7  A    between atoms: _16  and  _18
REMARK    8  A    between atoms: _18  and  _19
REMARK    9  A    between atoms: _22  and  _24
REMARK   10  A    between atoms: _24  and  _25
REMARK   11  A    between atoms: _24  and  _27
REMARK   12  A    between atoms: _27  and  _28
REMARK   13  A    between atoms: _30  and  _32
REMARK   14  A    between atoms: _32  and  _33
REMARK   15  A    between atoms: _32  and  _35
REMARK   16  A    between atoms: _35  and  _36
REMARK   17  A    between atoms: _36  and  _37
REMARK   18  A    between atoms: _42  and  _44
REMARK   19  A    between atoms: _44  and  _45
REMARK   20  A    between atoms: _44  and  _47
REMARK   21  A    between atoms: _47  and  _48
REMARK   22  A    between atoms: _48  and  _49
REMARK   23  A    between atoms: _49  and  _50
REMARK   24  A    between atoms: _59  and  _61
REMARK   25  A    between atoms: _61  and  _62
REMARK   26  A    between atoms: _61  and  _64
REMARK   27  A    between atoms: _64  and  _65
REMARK   28  A    between atoms: _68  and  _70
REMARK   29  A    between atoms: _70  and  _71
REMARK   30  A    between atoms: _70  and  _73
REMARK   31  A    between atoms: _73  and  _74
REMARK   32  A    between atoms: _79  and  _81
REMARK   33  A    between atoms: _81  and  _82
REMARK   34  A    between atoms: _81  and  _84
REMARK   35  A    between atoms: _84  and  _85
REMARK   36  A    between atoms: _95  and  _97
REMARK   37  A    between atoms: _97  and  _98
REMARK   38  A    between atoms: _97  and  _100
REMARK   39  A    between atoms: _100  and  _101
REMARK   40  A    between atoms: _106  and  _108
REMARK   41  A    between atoms: _108  and  _109
REMARK   42  A    between atoms: _108  and  _111
REMARK   43  A    between atoms: _111  and  _112
REMARK   44  A    between atoms: _112  and  _113
REMARK   45  A    between atoms: _116  and  _118
REMARK   46  A    between atoms: _118  and  _119
REMARK   47  A    between atoms: _118  and  _121
REMARK   48  A    between atoms: _124  and  _126
REMARK   49  A    between atoms: _126  and  _127
REMARK   50  A    between atoms: _126  and  _129
REMARK   51  A    between atoms: _129  and  _130
REMARK   52  A    between atoms: _135  and  _137
REMARK   53  A    between atoms: _137  and  _138
REMARK   54  A    between atoms: _137  and  _140
REMARK   55  A    between atoms: _143  and  _145
REMARK   56  A    between atoms: _145  and  _146
REMARK   57  A    between atoms: _145  and  _148
REMARK   58  A    between atoms: _148  and  _149
REMARK   59  A    between atoms: _155  and  _157
REMARK   60  A    between atoms: _157  and  _158
REMARK   61  A    between atoms: _157  and  _160
REMARK   62  A    between atoms: _160  and  _161
REMARK   63  A    between atoms: _166  and  _168
REMARK   64  A    between atoms: _168  and  _169
REMARK   65  A    between atoms: _168  and  _171
REMARK   66  A    between atoms: _171  and  _172
REMARK   67  A    between atoms: _177  and  _179
REMARK   68  A    between atoms: _179  and  _180
REMARK   69  A    between atoms: _179  and  _182
REMARK   70  A    between atoms: _182  and  _183
REMARK   71  A    between atoms: _188  and  _190
REMARK   72  A    between atoms: _190  and  _191
REMARK   73  A    between atoms: _190  and  _193
REMARK   74  A    between atoms: _193  and  _194
REMARK   75  A    between atoms: _199  and  _200
REMARK   76  A    between atoms: _202  and  _204
REMARK   77  A    between atoms: _204  and  _205
REMARK   78  A    between atoms: _204  and  _207
REMARK   79  A    between atoms: _207  and  _208
REMARK   80  A    between atoms: _213  and  _214
REMARK   81  A    between atoms: _216  and  _218
REMARK   82  A    between atoms: _218  and  _219
REMARK   83  A    between atoms: _218  and  _221
REMARK   84  A    between atoms: _221  and  _222
REMARK   85  A    between atoms: _222  and  _223
REMARK   86  A    between atoms: _225  and  _227
REMARK   87  A    between atoms: _227  and  _228
REMARK   88  A    between atoms: _227  and  _230
REMARK   89  A    between atoms: _230  and  _231
REMARK   90  A    between atoms: _241  and  _243
REMARK   91  A    between atoms: _243  and  _244
REMARK   92  A    between atoms: _243  and  _246
REMARK   93  A    between atoms: _246  and  _247
REMARK   94  A    between atoms: _250  and  _252
REMARK   95  A    between atoms: _252  and  _253
REMARK   96  A    between atoms: _252  and  _255
REMARK   97  A    between atoms: _255  and  _256
REMARK   98  A    between atoms: _256  and  _257
REMARK   99  A    between atoms: _260  and  _262
REMARK  100  A    between atoms: _262  and  _263
REMARK  101  A    between atoms: _262  and  _265
REMARK  102  A    between atoms: _265  and  _266
REMARK  103  A    between atoms: _271  and  _273
REMARK  104  A    between atoms: _273  and  _274
REMARK  105  A    between atoms: _276  and  _278
REMARK  106  A    between atoms: _278  and  _279
REMARK  107  A    between atoms: _282  and  _284
REMARK  108  A    between atoms: _284  and  _285
REMARK  109  A    between atoms: _288  and  _290
REMARK  110  A    between atoms: _290  and  _291
REMARK  111  A    between atoms: _290  and  _293
REMARK  112  A    between atoms: _293  and  _294
REMARK  113  A    between atoms: _304  and  _306
REMARK  114  A    between atoms: _306  and  _307
REMARK  115  A    between atoms: _306  and  _309
REMARK  116  A    between atoms: _309  and  _310
REMARK  117  A    between atoms: _312  and  _314
REMARK  118  A    between atoms: _314  and  _315
REMARK  119  A    between atoms: _314  and  _317
REMARK  120  A    between atoms: _317  and  _318
REMARK  121  A    between atoms: _323  and  _325
REMARK  122  A    between atoms: _325  and  _326
REMARK  123  A    between atoms: _325  and  _328
REMARK  124  A    between atoms: _328  and  _329
REMARK  125  A    between atoms: _335  and  _337
REMARK  126  A    between atoms: _337  and  _338
REMARK  127  A    between atoms: _337  and  _340
REMARK  128  A    between atoms: _340  and  _341
REMARK  129  A    between atoms: _341  and  _342
REMARK  130  A    between atoms: _345  and  _347
REMARK  131  A    between atoms: _347  and  _348
REMARK  132  A    between atoms: _347  and  _350
REMARK  133  A    between atoms: _350  and  _351
REMARK  134  A    between atoms: _361  and  _363
REMARK  135  A    between atoms: _363  and  _364
REMARK  136  A    between atoms: _367  and  _369
REMARK  137  A    between atoms: _369  and  _370
REMARK  138  A    between atoms: _369  and  _372
REMARK  139  A    between atoms: _372  and  _373
REMARK  140  A    between atoms: _373  and  _374
REMARK  141  A    between atoms: _377  and  _379
REMARK  142  A    between atoms: _379  and  _380
REMARK  143  A    between atoms: _379  and  _382
REMARK  144  A    between atoms: _382  and  _383
REMARK  145  A    between atoms: _383  and  _384
REMARK  146  A    between atoms: _384  and  _385
REMARK  147  A    between atoms: _385  and  _386
REMARK  148  A    between atoms: _390  and  _392
REMARK  149  A    between atoms: _392  and  _393
REMARK  150  A    between atoms: _392  and  _395
REMARK  151  A    between atoms: _395  and  _396
REMARK                            x       y       z     vdW  Elec       q    Type
REMARK                         _______ _______ _______ _____ _____    ______ ____
ROOT
ATOM      1  CA  TRP A   2       8.923  12.870   7.438  0.00  0.00    +0.141 C 
ENDROOT
BRANCH   1   3
ATOM      2  C   HIS A   1       7.159  14.653   7.395  0.00  0.00    +0.239 C 
ATOM      3  N   TRP A   2       8.409  14.231   7.705  0.00  0.00    -0.298 N 
ATOM      4  H   TRP A   2       9.050  14.910   8.162  0.00  0.00    +0.150 HD
ATOM      5  O   HIS A   1       6.480  14.194   6.474  0.00  0.00    -0.274 OA
BRANCH   2   6
ATOM      6  CA  HIS A   1       6.647  15.826   8.219  0.00  0.00    +0.151 C 
BRANCH   6   7
ATOM      7  N   HIS A   1       7.684  16.830   8.317  0.00  0.00    -0.238 NA
ATOM      8  H   HIS A   1       8.107  17.201   7.443  0.00  0.00    +0.142 HD
ENDBRANCH   6   7
BRANCH   6   9
ATOM      9  CB  HIS A   1       5.367  16.432   7.607  0.00  0.00    +0.074 C 
BRANCH   9  10
ATOM     10  CG  HIS A   1       4.107  15.685   7.961  0.00  0.00    +0.082 A 
ATOM     11  ND1 HIS A   1       2.999  16.313   8.503  0.00  0.00    -0.227 NA
ATOM     12  CE1 HIS A   1       2.025  15.431   8.648  0.00  0.00    +0.199 A 
ATOM     13  NE2 HIS A   1       2.460  14.250   8.239  0.00  0.00    -0.221 NA
ATOM     14  CD2 HIS A   1       3.766  14.381   7.817  0.00  0.00    +0.115 A 
ENDBRANCH   9  10
ENDBRANCH   6   9
ENDBRANCH   2   6
ENDBRANCH   1   3
BRANCH   1  15
ATOM     15  C   TRP A   2       9.774  12.711   6.187  0.00  0.00    +0.227 C 
ATOM     16  O   TRP A   2      10.426  11.673   6.029  0.00  0.00    -0.286 OA
ENDBRANCH   1  15
BRANCH   1  17
ATOM     17  CB  TRP A   2       7.832  11.788   7.412  0.00  0.00    +0.056 C 
BRANCH  17  18
ATOM     18  CG  TRP A   2       6.910  11.711   8.614  0.00  0.00    -0.002 A 
ATOM     19  CD1 TRP A   2       6.985  12.415   9.803  0.00  0.00    +0.068 A 
ATOM     20  NE1 TRP A   2       5.948  12.016  10.657  0.00  0.00    -0.352 N 
ATOM     21  HE1 TRP A   2       5.761  12.391  11.609  0.00  0.00    +0.166 HD
ATOM     22  CE2 TRP A   2       5.221  11.042  10.015  0.00  0.00    +0.056 A 
ATOM     23  CZ2 TRP A   2       4.083  10.331  10.441  0.00  0.00    +0.017 A 
ATOM     24  CH2 TRP A   2       3.556   9.390   9.574  0.00  0.00    +0.001 A 
ATOM     25  CZ3 TRP A   2       4.137   9.160   8.298  0.00  0.00    +0.000 A 
ATOM     26  CE3 TRP A   2       5.240   9.878   7.874  0.00  0.00    +0.001 A 
ATOM     27  CD2 TRP A   2       5.811  10.830   8.736  0.00  0.00    +0.013 A 
ENDBRANCH  17  18
ENDBRANCH   1  17
TORSDOF 8
REMARK  Name = ../refined-set-2016/2j75/2j75_pocket.pdb
REMARK  151 active torsions:
REMARK  status: ('A' for Active; 'I' for Inactive)
REMARK    1  A    between atoms: _1  and  _3
REMARK    2  A    between atoms: _3  and  _4
REMARK    3  A    between atoms: _7  and  _9
REMARK    4  A    between atoms: _9  and  _10
REMARK    5  A    between atoms: _9  and  _12
REMARK    6  A    between atoms: _12  and  _13
REMARK    7  A    between atoms: _16  and  _18
REMARK    8  A    between atoms: _18  and  _19
REMARK    9  A    between atoms: _22  and  _24
REMARK   10  A    between atoms: _24  and  _25
REMARK   11  A    between atoms: _24  and  _27
REMARK   12  A    between atoms: _27  and  _28
REMARK   13  A    between atoms: _30  and  _32
REMARK   14  A    between atoms: _32  and  _33
REMARK   15  A    between atoms: _32  and  _35
REMARK   16  A    between atoms: _35  and  _36
REMARK   17  A    between atoms: _36  and  _37
REMARK   18  A    between atoms: _42  and  _44
REMARK   19  A    between atoms: _44  and  _45
REMARK   20  A    between atoms: _44  and  _47
REMARK   21  A    between atoms: _47  and  _48
REMARK   22  A    between atoms: _48  and  _49
REMARK   23  A    between atoms: _49  and  _50
REMARK   24  A    between atoms: _59  and  _61
REMARK   25  A    between atoms: _61  and  _62
REMARK   26  A    between atoms: _61  and  _64
REMARK   27  A    between atoms: _64  and  _65
REMARK   28  A    between atoms: _68  and  _70
REMARK   29  A    between atoms: _70  and  _71
REMARK   30  A    between atoms: _70  and  _73
REMARK   31  A    between atoms: _73  and  _74
REMARK   32  A    between atoms: _79  and  _81
REMARK   33  A    between atoms: _81  and  _82
REMARK   34  A    between atoms: _81  and  _84
REMARK   35  A    between atoms: _84  and  _85
REMARK   36  A    between atoms: _95  and  _97
REMARK   37  A    between atoms: _97  and  _98
REMARK   38  A    between atoms: _97  and  _100
REMARK   39  A    between atoms: _100  and  _101
REMARK   40  A    between atoms: _106  and  _108
REMARK   41  A    between atoms: _108  and  _109
REMARK   42  A    between atoms: _108  and  _111
REMARK   43  A    between atoms: _111  and  _112
REMARK   44  A    between atoms: _112  and  _113
REMARK   45  A    between atoms: _116  and  _118
REMARK   46  A    between atoms: _118  and  _119
REMARK   47  A    between atoms: _118  and  _121
REMARK   48  A    between atoms: _124  and  _126
REMARK   49  A    between atoms: _126  and  _127
REMARK   50  A    between atoms: _126  and  _129
REMARK   51  A    between atoms: _129  and  _130
REMARK   52  A    between atoms: _135  and  _137
REMARK   53  A    between atoms: _137  and  _138
REMARK   54  A    between atoms: _137  and  _140
REMARK   55  A    between atoms: _143  and  _145
REMARK   56  A    between atoms: _145  and  _146
REMARK   57  A    between atoms: _145  and  _148
REMARK   58  A    between atoms: _148  and  _149
REMARK   59  A    between atoms: _155  and  _157
REMARK   60  A    between atoms: _157  and  _158
REMARK   61  A    between atoms: _157  and  _160
REMARK   62  A    between atoms: _160  and  _161
REMARK   63  A    between atoms: _166  and  _168
REMARK   64  A    between atoms: _168  and  _169
REMARK   65  A    between atoms: _168  and  _171
REMARK   66  A    between atoms: _171  and  _172
REMARK   67  A    between atoms: _177  and  _179
REMARK   68  A    between atoms: _179  and  _180
REMARK   69  A    between atoms: _179  and  _182
REMARK   70  A    between atoms: _182  and  _183
REMARK   71  A    between atoms: _188  and  _190
REMARK   72  A    between atoms: _190  and  _191
REMARK   73  A    between atoms: _190  and  _193
REMARK   74  A    between atoms: _193  and  _194
REMARK   75  A    between atoms: _199  and  _200
REMARK   76  A    between atoms: _202  and  _204
REMARK   77  A    between atoms: _204  and  _205
REMARK   78  A    between atoms: _204  and  _207
REMARK   79  A    between atoms: _207  and  _208
REMARK   80  A    between atoms: _213  and  _214
REMARK   81  A    between atoms: _216  and  _218
REMARK   82  A    between atoms: _218  and  _219
REMARK   83  A    between atoms: _218  and  _221
REMARK   84  A    between atoms: _221  and  _222
REMARK   85  A    between atoms: _222  and  _223
REMARK   86  A    between atoms: _225  and  _227
REMARK   87  A    between atoms: _227  and  _228
REMARK   88  A    between atoms: _227  and  _230
REMARK   89  A    between atoms: _230  and  _231
REMARK   90  A    between atoms: _241  and  _243
REMARK   91  A    between atoms: _243  and  _244
REMARK   92  A    between atoms: _243  and  _246
REMARK   93  A    between atoms: _246  and  _247
REMARK   94  A    between atoms: _250  and  _252
REMARK   95  A    between atoms: _252  and  _253
REMARK   96  A    between atoms: _252  and  _255
REMARK   97  A    between atoms: _255  and  _256
REMARK   98  A    between atoms: _256  and  _257
REMARK   99  A    between atoms: _260  and  _262
REMARK  100  A    between atoms: _262  and  _263
REMARK  101  A    between atoms: _262  and  _265
REMARK  102  A    between atoms: _265  and  _266
REMARK  103  A    between atoms: _271  and  _273
REMARK  104  A    between atoms: _273  and  _274
REMARK  105  A    between atoms: _276  and  _278
REMARK  106  A    between atoms: _278  and  _279
REMARK  107  A    between atoms: _282  and  _284
REMARK  108  A    between atoms: _284  and  _285
REMARK  109  A    between atoms: _288  and  _290
REMARK  110  A    between atoms: _290  and  _291
REMARK  111  A    between atoms: _290  and  _293
REMARK  112  A    between atoms: _293  and  _294
REMARK  113  A    between atoms: _304  and  _306
REMARK  114  A    between atoms: _306  and  _307
REMARK  115  A    between atoms: _306  and  _309
REMARK  116  A    between atoms: _309  and  _310
REMARK  117  A    between atoms: _312  and  _314
REMARK  118  A    between atoms: _314  and  _315
REMARK  119  A    between atoms: _314  and  _317
REMARK  120  A    between atoms: _317  and  _318
REMARK  121  A    between atoms: _323  and  _325
REMARK  122  A    between atoms: _325  and  _326
REMARK  123  A    between atoms: _325  and  _328
REMARK  124  A    between atoms: _328  and  _329
REMARK  125  A    between atoms: _335  and  _337
REMARK  126  A    between atoms: _337  and  _338
REMARK  127  A    between atoms: _337  and  _340
REMARK  128  A    between atoms: _340  and  _341
REMARK  129  A    between atoms: _341  and  _342
REMARK  130  A    between atoms: _345  and  _347
REMARK  131  A    between atoms: _347  and  _348
REMARK  132  A    between atoms: _347  and  _350
REMARK  133  A    between atoms: _350  and  _351
REMARK  134  A    between atoms: _361  and  _363
REMARK  135  A    between atoms: _363  and  _364
REMARK  136  A    between atoms: _367  and  _369
REMARK  137  A    between atoms: _369  and  _370
REMARK  138  A    between atoms: _369  and  _372
REMARK  139  A    between atoms: _372  and  _373
REMARK  140  A    between atoms: _373  and  _374
REMARK  141  A    between atoms: _377  and  _379
REMARK  142  A    between atoms: _379  and  _380
REMARK  143  A    between atoms: _379  and  _382
REMARK  144  A    between atoms: _382  and  _383
REMARK  145  A    between atoms: _383  and  _384
REMARK  146  A    between atoms: _384  and  _385
REMARK  147  A    between atoms: _385  and  _386
REMARK  148  A    between atoms: _390  and  _392
REMARK  149  A    between atoms: _392  and  _393
REMARK  150  A    between atoms: _392  and  _395
REMARK  151  A    between atoms: _395  and  _396
REMARK                            x       y       z     vdW  Elec       q    Type
REMARK                         _______ _______ _______ _____ _____    ______ ____
ROOT
ATOM      1  C   ASN A   1       5.281  14.378  13.633  0.00  0.00    +0.239 C 
ATOM      2  N   GLU A   2       4.644  13.972  14.732  0.00  0.00    -0.298 N 
ATOM      3  H   GLU A   2       4.155  14.678  15.318  0.00  0.00    +0.150 HD
ATOM      4  O   ASN A   1       6.021  13.651  13.000  0.00  0.00    -0.274 OA
ENDROOT
BRANCH   1   5
ATOM      5  CA  ASN A   1       5.044  15.799  13.166  0.00  0.00    +0.154 C 
BRANCH   5   6
ATOM      6  N   ASN A   1       6.312  16.538  13.178  0.00  0.00    -0.238 NA
ATOM      7  H   ASN A   1       6.951  16.464  12.361  0.00  0.00    +0.142 HD
ENDBRANCH   5   6
BRANCH   5   8
ATOM      8  CB  ASN A   1       4.469  15.708  11.752  0.00  0.00    +0.111 C 
BRANCH   8   9
ATOM      9  CG  ASN A   1       3.195  14.902  11.725  0.00  0.00    +0.221 C 
ATOM     10  OD1 ASN A   1       2.162  15.373  12.186  0.00  0.00    -0.275 OA
ATOM     11  ND2 ASN A   1       3.274  13.665  11.252  0.00  0.00    -0.329 N 
ATOM     12 HD21 ASN A   1       2.436  13.050  11.263  0.00  0.00    +0.145 HD
ATOM     13 HD22 ASN A   1       4.174  13.311  10.871  0.00  0.00    +0.145 HD
ENDBRANCH   8   9
ENDBRANCH   5   8
ENDBRANCH   1   5
BRANCH   2  14
ATOM     14  CA  GLU A   2       4.608  12.556  15.146  0.00  0.00    +0.137 C 
BRANCH  14  15
ATOM     15  C   GLU A   2       5.998  11.923  15.264  0.00  0.00    +0.227 C 
ATOM     16  O   GLU A   2       6.276  10.909  14.605  0.00  0.00    -0.286 OA
ENDBRANCH  14  15
BRANCH  14  17
ATOM     17  CB  GLU A   2       3.712  11.719  14.234  0.00  0.00    +0.039 C 
BRANCH  17  18
ATOM     18  CG  GLU A   2       2.251  12.262  14.181  0.00  0.00    +0.116 C 
BRANCH  18  19
ATOM     19  CD  GLU A   2       1.298  11.344  13.444  0.00  0.00    +0.365 C 
ATOM     20  OE2 GLU A   2       0.057  11.555  13.569  0.00  0.00    -0.246 OA
ATOM     21  OE1 GLU A   2       1.758  10.378  12.788  0.00  0.00    -0.246 OA
ENDBRANCH  18  19
ENDBRANCH  17  18
ENDBRANCH  14  17
ENDBRANCH   2  14
TORSDOF 9
REMARK  Name = ../refined-set-2016/2j75/2j75_pocket.pdb
REMARK  151 active torsions:
REMARK  status: ('A' for Active; 'I' for Inactive)
REMARK    1  A    between atoms: _1  and  _3
REMARK    2  A    between atoms: _3  and  _4
REMARK    3  A    between atoms: _7  and  _9
REMARK    4  A    between atoms: _9  and  _10
REMARK    5  A    between atoms: _9  and  _12
REMARK    6  A    between atoms: _12  and  _13
REMARK    7  A    between atoms: _16  and  _18
REMARK    8  A    between atoms: _18  and  _19
REMARK    9  A    between atoms: _22  and  _24
REMARK   10  A    between atoms: _24  and  _25
REMARK   11  A    between atoms: _24  and  _27
REMARK   12  A    between atoms: _27  and  _28
REMARK   13  A    between atoms: _30  and  _32
REMARK   14  A    between atoms: _32  and  _33
REMARK   15  A    between atoms: _32  and  _35
REMARK   16  A    between atoms: _35  and  _36
REMARK   17  A    between atoms: _36  and  _37
REMARK   18  A    between atoms: _42  and  _44
REMARK   19  A    between atoms: _44  and  _45
REMARK   20  A    between atoms: _44  and  _47
REMARK   21  A    between atoms: _47  and  _48
REMARK   22  A    between atoms: _48  and  _49
REMARK   23  A    between atoms: _49  and  _50
REMARK   24  A    between atoms: _59  and  _61
REMARK   25  A    between atoms: _61  and  _62
REMARK   26  A    between atoms: _61  and  _64
REMARK   27  A    between atoms: _64  and  _65
REMARK   28  A    between atoms: _68  and  _70
REMARK   29  A    between atoms: _70  and  _71
REMARK   30  A    between atoms: _70  and  _73
REMARK   31  A    between atoms: _73  and  _74
REMARK   32  A    between atoms: _79  and  _81
REMARK   33  A    between atoms: _81  and  _82
REMARK   34  A    between atoms: _81  and  _84
REMARK   35  A    between atoms: _84  and  _85
REMARK   36  A    between atoms: _95  and  _97
REMARK   37  A    between atoms: _97  and  _98
REMARK   38  A    between atoms: _97  and  _100
REMARK   39  A    between atoms: _100  and  _101
REMARK   40  A    between atoms: _106  and  _108
REMARK   41  A    between atoms: _108  and  _109
REMARK   42  A    between atoms: _108  and  _111
REMARK   43  A    between atoms: _111  and  _112
REMARK   44  A    between atoms: _112  and  _113
REMARK   45  A    between atoms: _116  and  _118
REMARK   46  A    between atoms: _118  and  _119
REMARK   47  A    between atoms: _118  and  _121
REMARK   48  A    between atoms: _124  and  _126
REMARK   49  A    between atoms: _126  and  _127
REMARK   50  A    between atoms: _126  and  _129
REMARK   51  A    between atoms: _129  and  _130
REMARK   52  A    between atoms: _135  and  _137
REMARK   53  A    between atoms: _137  and  _138
REMARK   54  A    between atoms: _137  and  _140
REMARK   55  A    between atoms: _143  and  _145
REMARK   56  A    between atoms: _145  and  _146
REMARK   57  A    between atoms: _145  and  _148
REMARK   58  A    between atoms: _148  and  _149
REMARK   59  A    between atoms: _155  and  _157
REMARK   60  A    between atoms: _157  and  _158
REMARK   61  A    between atoms: _157  and  _160
REMARK   62  A    between atoms: _160  and  _161
REMARK   63  A    between atoms: _166  and  _168
REMARK   64  A    between atoms: _168  and  _169
REMARK   65  A    between atoms: _168  and  _171
REMARK   66  A    between atoms: _171  and  _172
REMARK   67  A    between atoms: _177  and  _179
REMARK   68  A    between atoms: _179  and  _180
REMARK   69  A    between atoms: _179  and  _182
REMARK   70  A    between atoms: _182  and  _183
REMARK   71  A    between atoms: _188  and  _190
REMARK   72  A    between atoms: _190  and  _191
REMARK   73  A    between atoms: _190  and  _193
REMARK   74  A    between atoms: _193  and  _194
REMARK   75  A    between atoms: _199  and  _200
REMARK   76  A    between atoms: _202  and  _204
REMARK   77  A    between atoms: _204  and  _205
REMARK   78  A    between atoms: _204  and  _207
REMARK   79  A    between atoms: _207  and  _208
REMARK   80  A    between atoms: _213  and  _214
REMARK   81  A    between atoms: _216  and  _218
REMARK   82  A    between atoms: _218  and  _219
REMARK   83  A    between atoms: _218  and  _221
REMARK   84  A    between atoms: _221  and  _222
REMARK   85  A    between atoms: _222  and  _223
REMARK   86  A    between atoms: _225  and  _227
REMARK   87  A    between atoms: _227  and  _228
REMARK   88  A    between atoms: _227  and  _230
REMARK   89  A    between atoms: _230  and  _231
REMARK   90  A    between atoms: _241  and  _243
REMARK   91  A    between atoms: _243  and  _244
REMARK   92  A    between atoms: _243  and  _246
REMARK   93  A    between atoms: _246  and  _247
REMARK   94  A    between atoms: _250  and  _252
REMARK   95  A    between atoms: _252  and  _253
REMARK   96  A    between atoms: _252  and  _255
REMARK   97  A    between atoms: _255  and  _256
REMARK   98  A    between atoms: _256  and  _257
REMARK   99  A    between atoms: _260  and  _262
REMARK  100  A    between atoms: _262  and  _263
REMARK  101  A    between atoms: _262  and  _265
REMARK  102  A    between atoms: _265  and  _266
REMARK  103  A    between atoms: _271  and  _273
REMARK  104  A    between atoms: _273  and  _274
REMARK  105  A    between atoms: _276  and  _278
REMARK  106  A    between atoms: _278  and  _279
REMARK  107  A    between atoms: _282  and  _284
REMARK  108  A    between atoms: _284  and  _285
REMARK  109  A    between atoms: _288  and  _290
REMARK  110  A    between atoms: _290  and  _291
REMARK  111  A    between atoms: _290  and  _293
REMARK  112  A    between atoms: _293  and  _294
REMARK  113  A    between atoms: _304  and  _306
REMARK  114  A    between atoms: _306  and  _307
REMARK  115  A    between atoms: _306  and  _309
REMARK  116  A    between atoms: _309  and  _310
REMARK  117  A    between atoms: _312  and  _314
REMARK  118  A    between atoms: _314  and  _315
REMARK  119  A    between atoms: _314  and  _317
REMARK  120  A    between atoms: _317  and  _318
REMARK  121  A    between atoms: _323  and  _325
REMARK  122  A    between atoms: _325  and  _326
REMARK  123  A    between atoms: _325  and  _328
REMARK  124  A    between atoms: _328  and  _329
REMARK  125  A    between atoms: _335  and  _337
REMARK  126  A    between atoms: _337  and  _338
REMARK  127  A    between atoms: _337  and  _340
REMARK  128  A    between atoms: _340  and  _341
REMARK  129  A    between atoms: _341  and  _342
REMARK  130  A    between atoms: _345  and  _347
REMARK  131  A    between atoms: _347  and  _348
REMARK  132  A    between atoms: _347  and  _350
REMARK  133  A    between atoms: _350  and  _351
REMARK  134  A    between atoms: _361  and  _363
REMARK  135  A    between atoms: _363  and  _364
REMARK  136  A    between atoms: _367  and  _369
REMARK  137  A    between atoms: _369  and  _370
REMARK  138  A    between atoms: _369  and  _372
REMARK  139  A    between atoms: _372  and  _373
REMARK  140  A    between atoms: _373  and  _374
REMARK  141  A    between atoms: _377  and  _379
REMARK  142  A    between atoms: _379  and  _380
REMARK  143  A    between atoms: _379  and  _382
REMARK  144  A    between atoms: _382  and  _383
REMARK  145  A    between atoms: _383  and  _384
REMARK  146  A    between atoms: _384  and  _385
REMARK  147  A    between atoms: _385  and  _386
REMARK  148  A    between atoms: _390  and  _392
REMARK  149  A    between atoms: _392  and  _393
REMARK  150  A    between atoms: _392  and  _395
REMARK  151  A    between atoms: _395  and  _396
REMARK                            x       y       z     vdW  Elec       q    Type
REMARK                         _______ _______ _______ _____ _____    ______ ____
ROOT
ATOM      1  CA  VAL A   1       6.185   7.400  14.279  0.00  0.00    +0.133 C 
ENDROOT
BRANCH   1   2
ATOM      2  CB  VAL A   1       5.051   8.002  13.389  0.00  0.00    +0.023 C 
ATOM      3  CG2 VAL A   1       3.705   7.897  14.127  0.00  0.00    +0.002 C 
ATOM      4  CG1 VAL A   1       4.973   7.245  12.060  0.00  0.00    +0.002 C 
ENDBRANCH   1   2
BRANCH   1   5
ATOM      5  N   VAL A   1       6.307   8.130  15.541  0.00  0.00    -0.239 NA
ATOM      6  H   VAL A   1       5.745   8.994  15.680  0.00  0.00    +0.142 HD
ENDBRANCH   1   5
BRANCH   1   7
ATOM      7  C   VAL A   1       7.502   7.441  13.516  0.00  0.00    +0.224 C 
ATOM      8  O   VAL A   1       7.973   6.416  13.030  0.00  0.00    -0.287 OA
ENDBRANCH   1   7
TORSDOF 3
REMARK  Name = ../refined-set-2016/2j75/2j75_pocket.pdb
REMARK  151 active torsions:
REMARK  status: ('A' for Active; 'I' for Inactive)
REMARK    1  A    between atoms: _1  and  _3
REMARK    2  A    between atoms: _3  and  _4
REMARK    3  A    between atoms: _7  and  _9
REMARK    4  A    between atoms: _9  and  _10
REMARK    5  A    between atoms: _9  and  _12
REMARK    6  A    between atoms: _12  and  _13
REMARK    7  A    between atoms: _16  and  _18
REMARK    8  A    between atoms: _18  and  _19
REMARK    9  A    between atoms: _22  and  _24
REMARK   10  A    between atoms: _24  and  _25
REMARK   11  A    between atoms: _24  and  _27
REMARK   12  A    between atoms: _27  and  _28
REMARK   13  A    between atoms: _30  and  _32
REMARK   14  A    between atoms: _32  and  _33
REMARK   15  A    between atoms: _32  and  _35
REMARK   16  A    between atoms: _35  and  _36
REMARK   17  A    between atoms: _36  and  _37
REMARK   18  A    between atoms: _42  and  _44
REMARK   19  A    between atoms: _44  and  _45
REMARK   20  A    between atoms: _44  and  _47
REMARK   21  A    between atoms: _47  and  _48
REMARK   22  A    between atoms: _48  and  _49
REMARK   23  A    between atoms: _49  and  _50
REMARK   24  A    between atoms: _59  and  _61
REMARK   25  A    between atoms: _61  and  _62
REMARK   26  A    between atoms: _61  and  _64
REMARK   27  A    between atoms: _64  and  _65
REMARK   28  A    between atoms: _68  and  _70
REMARK   29  A    between atoms: _70  and  _71
REMARK   30  A    between atoms: _70  and  _73
REMARK   31  A    between atoms: _73  and  _74
REMARK   32  A    between atoms: _79  and  _81
REMARK   33  A    between atoms: _81  and  _82
REMARK   34  A    between atoms: _81  and  _84
REMARK   35  A    between atoms: _84  and  _85
REMARK   36  A    between atoms: _95  and  _97
REMARK   37  A    between atoms: _97  and  _98
REMARK   38  A    between atoms: _97  and  _100
REMARK   39  A    between atoms: _100  and  _101
REMARK   40  A    between atoms: _106  and  _108
REMARK   41  A    between atoms: _108  and  _109
REMARK   42  A    between atoms: _108  and  _111
REMARK   43  A    between atoms: _111  and  _112
REMARK   44  A    between atoms: _112  and  _113
REMARK   45  A    between atoms: _116  and  _118
REMARK   46  A    between atoms: _118  and  _119
REMARK   47  A    between atoms: _118  and  _121
REMARK   48  A    between atoms: _124  and  _126
REMARK   49  A    between atoms: _126  and  _127
REMARK   50  A    between atoms: _126  and  _129
REMARK   51  A    between atoms: _129  and  _130
REMARK   52  A    between atoms: _135  and  _137
REMARK   53  A    between atoms: _137  and  _138
REMARK   54  A    between atoms: _137  and  _140
REMARK   55  A    between atoms: _143  and  _145
REMARK   56  A    between atoms: _145  and  _146
REMARK   57  A    between atoms: _145  and  _148
REMARK   58  A    between atoms: _148  and  _149
REMARK   59  A    between atoms: _155  and  _157
REMARK   60  A    between atoms: _157  and  _158
REMARK   61  A    between atoms: _157  and  _160
REMARK   62  A    between atoms: _160  and  _161
REMARK   63  A    between atoms: _166  and  _168
REMARK   64  A    between atoms: _168  and  _169
REMARK   65  A    between atoms: _168  and  _171
REMARK   66  A    between atoms: _171  and  _172
REMARK   67  A    between atoms: _177  and  _179
REMARK   68  A    between atoms: _179  and  _180
REMARK   69  A    between atoms: _179  and  _182
REMARK   70  A    between atoms: _182  and  _183
REMARK   71  A    between atoms: _188  and  _190
REMARK   72  A    between atoms: _190  and  _191
REMARK   73  A    between atoms: _190  and  _193
REMARK   74  A    between atoms: _193  and  _194
REMARK   75  A    between atoms: _199  and  _200
REMARK   76  A    between atoms: _202  and  _204
REMARK   77  A    between atoms: _204  and  _205
REMARK   78  A    between atoms: _204  and  _207
REMARK   79  A    between atoms: _207  and  _208
REMARK   80  A    between atoms: _213  and  _214
REMARK   81  A    between atoms: _216  and  _218
REMARK   82  A    between atoms: _218  and  _219
REMARK   83  A    between atoms: _218  and  _221
REMARK   84  A    between atoms: _221  and  _222
REMARK   85  A    between atoms: _222  and  _223
REMARK   86  A    between atoms: _225  and  _227
REMARK   87  A    between atoms: _227  and  _228
REMARK   88  A    between atoms: _227  and  _230
REMARK   89  A    between atoms: _230  and  _231
REMARK   90  A    between atoms: _241  and  _243
REMARK   91  A    between atoms: _243  and  _244
REMARK   92  A    between atoms: _243  and  _246
REMARK   93  A    between atoms: _246  and  _247
REMARK   94  A    between atoms: _250  and  _252
REMARK   95  A    between atoms: _252  and  _253
REMARK   96  A    between atoms: _252  and  _255
REMARK   97  A    between atoms: _255  and  _256
REMARK   98  A    between atoms: _256  and  _257
REMARK   99  A    between atoms: _260  and  _262
REMARK  100  A    between atoms: _262  and  _263
REMARK  101  A    between atoms: _262  and  _265
REMARK  102  A    between atoms: _265  and  _266
REMARK  103  A    between atoms: _271  and  _273
REMARK  104  A    between atoms: _273  and  _274
REMARK  105  A    between atoms: _276  and  _278
REMARK  106  A    between atoms: _278  and  _279
REMARK  107  A    between atoms: _282  and  _284
REMARK  108  A    between atoms: _284  and  _285
REMARK  109  A    between atoms: _288  and  _290
REMARK  110  A    between atoms: _290  and  _291
REMARK  111  A    between atoms: _290  and  _293
REMARK  112  A    between atoms: _293  and  _294
REMARK  113  A    between atoms: _304  and  _306
REMARK  114  A    between atoms: _306  and  _307
REMARK  115  A    between atoms: _306  and  _309
REMARK  116  A    between atoms: _309  and  _310
REMARK  117  A    between atoms: _312  and  _314
REMARK  118  A    between atoms: _314  and  _315
REMARK  119  A    between atoms: _314  and  _317
REMARK  120  A    between atoms: _317  and  _318
REMARK  121  A    between atoms: _323  and  _325
REMARK  122  A    between atoms: _325  and  _326
REMARK  123  A    between atoms: _325  and  _328
REMARK  124  A    between atoms: _328  and  _329
REMARK  125  A    between atoms: _335  and  _337
REMARK  126  A    between atoms: _337  and  _338
REMARK  127  A    between atoms: _337  and  _340
REMARK  128  A    between atoms: _340  and  _341
REMARK  129  A    between atoms: _341  and  _342
REMARK  130  A    between atoms: _345  and  _347
REMARK  131  A    between atoms: _347  and  _348
REMARK  132  A    between atoms: _347  and  _350
REMARK  133  A    between atoms: _350  and  _351
REMARK  134  A    between atoms: _361  and  _363
REMARK  135  A    between atoms: _363  and  _364
REMARK  136  A    between atoms: _367  and  _369
REMARK  137  A    between atoms: _369  and  _370
REMARK  138  A    between atoms: _369  and  _372
REMARK  139  A    between atoms: _372  and  _373
REMARK  140  A    between atoms: _373  and  _374
REMARK  141  A    between atoms: _377  and  _379
REMARK  142  A    between atoms: _379  and  _380
REMARK  143  A    between atoms: _379  and  _382
REMARK  144  A    between atoms: _382  and  _383
REMARK  145  A    between atoms: _383  and  _384
REMARK  146  A    between atoms: _384  and  _385
REMARK  147  A    between atoms: _385  and  _386
REMARK  148  A    between atoms: _390  and  _392
REMARK  149  A    between atoms: _392  and  _393
REMARK  150  A    between atoms: _392  and  _395
REMARK  151  A    between atoms: _395  and  _396
REMARK                            x       y       z     vdW  Elec       q    Type
REMARK                         _______ _______ _______ _____ _____    ______ ____
ROOT
ATOM      1  CB  HIS A   1       7.663   4.823   7.978  0.00  0.00    +0.072 C 
ENDROOT
BRANCH   1   2
ATOM      2  CG  HIS A   1       6.179   4.964   8.089  0.00  0.00    +0.082 A 
ATOM      3  ND1 HIS A   1       5.595   5.863   8.948  0.00  0.00    -0.227 NA
ATOM      4  CE1 HIS A   1       4.280   5.766   8.856  0.00  0.00    +0.199 A 
ATOM      5  NE2 HIS A   1       3.989   4.829   7.972  0.00  0.00    -0.221 NA
ATOM      6  CD2 HIS A   1       5.163   4.300   7.484  0.00  0.00    +0.115 A 
ENDBRANCH   1   2
BRANCH   1   7
ATOM      7  CA  HIS A   1       8.115   3.714   7.038  0.00  0.00    +0.139 C 
BRANCH   7   8
ATOM      8  N   HIS A   1       7.944   2.396   7.669  0.00  0.00    -0.239 NA
ATOM      9  H   HIS A   1       8.354   2.233   8.611  0.00  0.00    +0.142 HD
ENDBRANCH   7   8
BRANCH   7  10
ATOM     10  C   HIS A   1       9.582   3.974   6.772  0.00  0.00    +0.224 C 
ATOM     11  O   HIS A   1      10.448   3.342   7.399  0.00  0.00    -0.287 OA
ENDBRANCH   7  10
ENDBRANCH   1   7
TORSDOF 4
REMARK  Name = ../refined-set-2016/2j75/2j75_pocket.pdb
REMARK  151 active torsions:
REMARK  status: ('A' for Active; 'I' for Inactive)
REMARK    1  A    between atoms: _1  and  _3
REMARK    2  A    between atoms: _3  and  _4
REMARK    3  A    between atoms: _7  and  _9
REMARK    4  A    between atoms: _9  and  _10
REMARK    5  A    between atoms: _9  and  _12
REMARK    6  A    between atoms: _12  and  _13
REMARK    7  A    between atoms: _16  and  _18
REMARK    8  A    between atoms: _18  and  _19
REMARK    9  A    between atoms: _22  and  _24
REMARK   10  A    between atoms: _24  and  _25
REMARK   11  A    between atoms: _24  and  _27
REMARK   12  A    between atoms: _27  and  _28
REMARK   13  A    between atoms: _30  and  _32
REMARK   14  A    between atoms: _32  and  _33
REMARK   15  A    between atoms: _32  and  _35
REMARK   16  A    between atoms: _35  and  _36
REMARK   17  A    between atoms: _36  and  _37
REMARK   18  A    between atoms: _42  and  _44
REMARK   19  A    between atoms: _44  and  _45
REMARK   20  A    between atoms: _44  and  _47
REMARK   21  A    between atoms: _47  and  _48
REMARK   22  A    between atoms: _48  and  _49
REMARK   23  A    between atoms: _49  and  _50
REMARK   24  A    between atoms: _59  and  _61
REMARK   25  A    between atoms: _61  and  _62
REMARK   26  A    between atoms: _61  and  _64
REMARK   27  A    between atoms: _64  and  _65
REMARK   28  A    between atoms: _68  and  _70
REMARK   29  A    between atoms: _70  and  _71
REMARK   30  A    between atoms: _70  and  _73
REMARK   31  A    between atoms: _73  and  _74
REMARK   32  A    between atoms: _79  and  _81
REMARK   33  A    between atoms: _81  and  _82
REMARK   34  A    between atoms: _81  and  _84
REMARK   35  A    between atoms: _84  and  _85
REMARK   36  A    between atoms: _95  and  _97
REMARK   37  A    between atoms: _97  and  _98
REMARK   38  A    between atoms: _97  and  _100
REMARK   39  A    between atoms: _100  and  _101
REMARK   40  A    between atoms: _106  and  _108
REMARK   41  A    between atoms: _108  and  _109
REMARK   42  A    between atoms: _108  and  _111
REMARK   43  A    between atoms: _111  and  _112
REMARK   44  A    between atoms: _112  and  _113
REMARK   45  A    between atoms: _116  and  _118
REMARK   46  A    between atoms: _118  and  _119
REMARK   47  A    between atoms: _118  and  _121
REMARK   48  A    between atoms: _124  and  _126
REMARK   49  A    between atoms: _126  and  _127
REMARK   50  A    between atoms: _126  and  _129
REMARK   51  A    between atoms: _129  and  _130
REMARK   52  A    between atoms: _135  and  _137
REMARK   53  A    between atoms: _137  and  _138
REMARK   54  A    between atoms: _137  and  _140
REMARK   55  A    between atoms: _143  and  _145
REMARK   56  A    between atoms: _145  and  _146
REMARK   57  A    between atoms: _145  and  _148
REMARK   58  A    between atoms: _148  and  _149
REMARK   59  A    between atoms: _155  and  _157
REMARK   60  A    between atoms: _157  and  _158
REMARK   61  A    between atoms: _157  and  _160
REMARK   62  A    between atoms: _160  and  _161
REMARK   63  A    between atoms: _166  and  _168
REMARK   64  A    between atoms: _168  and  _169
REMARK   65  A    between atoms: _168  and  _171
REMARK   66  A    between atoms: _171  and  _172
REMARK   67  A    between atoms: _177  and  _179
REMARK   68  A    between atoms: _179  and  _180
REMARK   69  A    between atoms: _179  and  _182
REMARK   70  A    between atoms: _182  and  _183
REMARK   71  A    between atoms: _188  and  _190
REMARK   72  A    between atoms: _190  and  _191
REMARK   73  A    between atoms: _190  and  _193
REMARK   74  A    between atoms: _193  and  _194
REMARK   75  A    between atoms: _199  and  _200
REMARK   76  A    between atoms: _202  and  _204
REMARK   77  A    between atoms: _204  and  _205
REMARK   78  A    between atoms: _204  and  _207
REMARK   79  A    between atoms: _207  and  _208
REMARK   80  A    between atoms: _213  and  _214
REMARK   81  A    between atoms: _216  and  _218
REMARK   82  A    between atoms: _218  and  _219
REMARK   83  A    between atoms: _218  and  _221
REMARK   84  A    between atoms: _221  and  _222
REMARK   85  A    between atoms: _222  and  _223
REMARK   86  A    between atoms: _225  and  _227
REMARK   87  A    between atoms: _227  and  _228
REMARK   88  A    between atoms: _227  and  _230
REMARK   89  A    between atoms: _230  and  _231
REMARK   90  A    between atoms: _241  and  _243
REMARK   91  A    between atoms: _243  and  _244
REMARK   92  A    between atoms: _243  and  _246
REMARK   93  A    between atoms: _246  and  _247
REMARK   94  A    between atoms: _250  and  _252
REMARK   95  A    between atoms: _252  and  _253
REMARK   96  A    between atoms: _252  and  _255
REMARK   97  A    between atoms: _255  and  _256
REMARK   98  A    between atoms: _256  and  _257
REMARK   99  A    between atoms: _260  and  _262
REMARK  100  A    between atoms: _262  and  _263
REMARK  101  A    between atoms: _262  and  _265
REMARK  102  A    between atoms: _265  and  _266
REMARK  103  A    between atoms: _271  and  _273
REMARK  104  A    between atoms: _273  and  _274
REMARK  105  A    between atoms: _276  and  _278
REMARK  106  A    between atoms: _278  and  _279
REMARK  107  A    between atoms: _282  and  _284
REMARK  108  A    between atoms: _284  and  _285
REMARK  109  A    between atoms: _288  and  _290
REMARK  110  A    between atoms: _290  and  _291
REMARK  111  A    between atoms: _290  and  _293
REMARK  112  A    between atoms: _293  and  _294
REMARK  113  A    between atoms: _304  and  _306
REMARK  114  A    between atoms: _306  and  _307
REMARK  115  A    between atoms: _306  and  _309
REMARK  116  A    between atoms: _309  and  _310
REMARK  117  A    between atoms: _312  and  _314
REMARK  118  A    between atoms: _314  and  _315
REMARK  119  A    between atoms: _314  and  _317
REMARK  120  A    between atoms: _317  and  _318
REMARK  121  A    between atoms: _323  and  _325
REMARK  122  A    between atoms: _325  and  _326
REMARK  123  A    between atoms: _325  and  _328
REMARK  124  A    between atoms: _328  and  _329
REMARK  125  A    between atoms: _335  and  _337
REMARK  126  A    between atoms: _337  and  _338
REMARK  127  A    between atoms: _337  and  _340
REMARK  128  A    between atoms: _340  and  _341
REMARK  129  A    between atoms: _341  and  _342
REMARK  130  A    between atoms: _345  and  _347
REMARK  131  A    between atoms: _347  and  _348
REMARK  132  A    between atoms: _347  and  _350
REMARK  133  A    between atoms: _350  and  _351
REMARK  134  A    between atoms: _361  and  _363
REMARK  135  A    between atoms: _363  and  _364
REMARK  136  A    between atoms: _367  and  _369
REMARK  137  A    between atoms: _369  and  _370
REMARK  138  A    between atoms: _369  and  _372
REMARK  139  A    between atoms: _372  and  _373
REMARK  140  A    between atoms: _373  and  _374
REMARK  141  A    between atoms: _377  and  _379
REMARK  142  A    between atoms: _379  and  _380
REMARK  143  A    between atoms: _379  and  _382
REMARK  144  A    between atoms: _382  and  _383
REMARK  145  A    between atoms: _383  and  _384
REMARK  146  A    between atoms: _384  and  _385
REMARK  147  A    between atoms: _385  and  _386
REMARK  148  A    between atoms: _390  and  _392
REMARK  149  A    between atoms: _392  and  _393
REMARK  150  A    between atoms: _392  and  _395
REMARK  151  A    between atoms: _395  and  _396
REMARK                            x       y       z     vdW  Elec       q    Type
REMARK                         _______ _______ _______ _____ _____    ______ ____
ROOT
ATOM      1  C   PHE A   2       1.011  13.250  18.212  0.00  0.00    +0.241 C 
ATOM      2  O   PHE A   2      -0.110  13.759  18.336  0.00  0.00    -0.273 OA
ATOM      3  N   ASN A   3       1.235  12.022  17.730  0.00  0.00    -0.297 N 
ATOM      4  H   ASN A   3       2.204  11.751  17.467  0.00  0.00    +0.150 HD
ENDROOT
BRANCH   1   5
ATOM      5  CA  PHE A   2       2.217  14.043  18.655  0.00  0.00    +0.153 C 
BRANCH   5   7
ATOM      6  C   VAL A   1       3.020  16.088  17.511  0.00  0.00    +0.238 C 
ATOM      7  N   PHE A   2       2.109  15.479  18.286  0.00  0.00    -0.297 N 
ATOM      8  H   PHE A   2       1.301  16.030  18.640  0.00  0.00    +0.150 HD
ATOM      9  O   VAL A   1       4.010  15.506  17.029  0.00  0.00    -0.274 OA
BRANCH   6  10
ATOM     10  CA  VAL A   1       2.800  17.569  17.215  0.00  0.00    +0.145 C 
BRANCH  10  11
ATOM     11  CB  VAL A   1       2.346  17.693  15.747  0.00  0.00    +0.025 C 
ATOM     12  CG2 VAL A   1       1.760  19.089  15.479  0.00  0.00    +0.002 C 
ATOM     13  CG1 VAL A   1       1.395  16.602  15.392  0.00  0.00    +0.002 C 
ENDBRANCH  10  11
BRANCH  10  14
ATOM     14  N   VAL A   1       4.001  18.366  17.443  0.00  0.00    -0.238 NA
ATOM     15  H   VAL A   1       4.835  18.174  16.852  0.00  0.00    +0.142 HD
ENDBRANCH  10  14
ENDBRANCH   6  10
ENDBRANCH   5   7
BRANCH   5  16
ATOM     16  CB  PHE A   2       2.356  13.886  20.187  0.00  0.00    +0.055 C 
BRANCH  16  17
ATOM     17  CG  PHE A   2       3.425  14.767  20.771  0.00  0.00    -0.020 A 
ATOM     18  CD2 PHE A   2       3.101  15.889  21.527  0.00  0.00    -0.004 A 
ATOM     19  CE2 PHE A   2       4.101  16.739  22.036  0.00  0.00    -0.000 A 
ATOM     20  CZ  PHE A   2       5.469  16.445  21.768  0.00  0.00    -0.000 A 
ATOM     21  CE1 PHE A   2       5.791  15.320  20.993  0.00  0.00    -0.000 A 
ATOM     22  CD1 PHE A   2       4.780  14.484  20.507  0.00  0.00    -0.004 A 
ENDBRANCH  16  17
ENDBRANCH   5  16
ENDBRANCH   1   5
BRANCH   3  23
ATOM     23  CA  ASN A   3       0.146  11.042  17.561  0.00  0.00    +0.158 C 
BRANCH  23  24
ATOM     24  C   ASN A   3      -0.252  10.526  18.939  0.00  0.00    +0.241 C 
ATOM     25  O   ASN A   3       0.568  10.492  19.884  0.00  0.00    -0.273 OA
ATOM     26  N   ASN A   4      -1.518  10.142  19.066  0.00  0.00    -0.298 N 
ATOM     27  H   ASN A   4      -2.146  10.166  18.238  0.00  0.00    +0.150 HD
BRANCH  26  28
ATOM     28  CA  ASN A   4      -2.042   9.685  20.358  0.00  0.00    +0.146 C 
BRANCH  28  29
ATOM     29  C   ASN A   4      -3.156   8.712  20.085  0.00  0.00    +0.227 C 
ATOM     30  O   ASN A   4      -3.908   8.898  19.143  0.00  0.00    -0.286 OA
ENDBRANCH  28  29
BRANCH  28  31
ATOM     31  CB  ASN A   4      -2.624  10.844  21.188  0.00  0.00    +0.112 C 
BRANCH  31  32
ATOM     32  CG  ASN A   4      -1.653  11.952  21.409  0.00  0.00    +0.222 C 
ATOM     33  OD1 ASN A   4      -0.841  11.918  22.347  0.00  0.00    -0.275 OA
ATOM     34  ND2 ASN A   4      -1.735  12.958  20.570  0.00  0.00    -0.329 N 
ATOM     35 HD21 ASN A   4      -1.101  13.776  20.675  0.00  0.00    +0.145 HD
ATOM     36 HD22 ASN A   4      -2.434  12.937  19.800  0.00  0.00    +0.145 HD
ENDBRANCH  31  32
ENDBRANCH  28  31
ENDBRANCH  26  28
ENDBRANCH  23  24
BRANCH  23  37
ATOM     37  CB  ASN A   3       0.546   9.838  16.692  0.00  0.00    +0.114 C 
BRANCH  37  38
ATOM     38  CG  ASN A   3       1.845   9.209  17.151  0.00  0.00    +0.222 C 
ATOM     39  ND2 ASN A   3       1.764   7.993  17.687  0.00  0.00    -0.329 N 
ATOM     40 HD21 ASN A   3       2.622   7.520  18.036  0.00  0.00    +0.145 HD
ATOM     41 HD22 ASN A   3       0.843   7.516  17.757  0.00  0.00    +0.145 HD
ATOM     42  OD1 ASN A   3       2.905   9.822  17.042  0.00  0.00    -0.275 OA
ENDBRANCH  37  38
ENDBRANCH  23  37
ENDBRANCH   3  23
TORSDOF 15
REMARK  Name = ../refined-set-2016/2j75/2j75_pocket.pdb
REMARK  151 active torsions:
REMARK  status: ('A' for Active; 'I' for Inactive)
REMARK    1  A    between atoms: _1  and  _3
REMARK    2  A    between atoms: _3  and  _4
REMARK    3  A    between atoms: _7  and  _9
REMARK    4  A    between atoms: _9  and  _10
REMARK    5  A    between atoms: _9  and  _12
REMARK    6  A    between atoms: _12  and  _13
REMARK    7  A    between atoms: _16  and  _18
REMARK    8  A    between atoms: _18  and  _19
REMARK    9  A    between atoms: _22  and  _24
REMARK   10  A    between atoms: _24  and  _25
REMARK   11  A    between atoms: _24  and  _27
REMARK   12  A    between atoms: _27  and  _28
REMARK   13  A    between atoms: _30  and  _32
REMARK   14  A    between atoms: _32  and  _33
REMARK   15  A    between atoms: _32  and  _35
REMARK   16  A    between atoms: _35  and  _36
REMARK   17  A    between atoms: _36  and  _37
REMARK   18  A    between atoms: _42  and  _44
REMARK   19  A    between atoms: _44  and  _45
REMARK   20  A    between atoms: _44  and  _47
REMARK   21  A    between atoms: _47  and  _48
REMARK   22  A    between atoms: _48  and  _49
REMARK   23  A    between atoms: _49  and  _50
REMARK   24  A    between atoms: _59  and  _61
REMARK   25  A    between atoms: _61  and  _62
REMARK   26  A    between atoms: _61  and  _64
REMARK   27  A    between atoms: _64  and  _65
REMARK   28  A    between atoms: _68  and  _70
REMARK   29  A    between atoms: _70  and  _71
REMARK   30  A    between atoms: _70  and  _73
REMARK   31  A    between atoms: _73  and  _74
REMARK   32  A    between atoms: _79  and  _81
REMARK   33  A    between atoms: _81  and  _82
REMARK   34  A    between atoms: _81  and  _84
REMARK   35  A    between atoms: _84  and  _85
REMARK   36  A    between atoms: _95  and  _97
REMARK   37  A    between atoms: _97  and  _98
REMARK   38  A    between atoms: _97  and  _100
REMARK   39  A    between atoms: _100  and  _101
REMARK   40  A    between atoms: _106  and  _108
REMARK   41  A    between atoms: _108  and  _109
REMARK   42  A    between atoms: _108  and  _111
REMARK   43  A    between atoms: _111  and  _112
REMARK   44  A    between atoms: _112  and  _113
REMARK   45  A    between atoms: _116  and  _118
REMARK   46  A    between atoms: _118  and  _119
REMARK   47  A    between atoms: _118  and  _121
REMARK   48  A    between atoms: _124  and  _126
REMARK   49  A    between atoms: _126  and  _127
REMARK   50  A    between atoms: _126  and  _129
REMARK   51  A    between atoms: _129  and  _130
REMARK   52  A    between atoms: _135  and  _137
REMARK   53  A    between atoms: _137  and  _138
REMARK   54  A    between atoms: _137  and  _140
REMARK   55  A    between atoms: _143  and  _145
REMARK   56  A    between atoms: _145  and  _146
REMARK   57  A    between atoms: _145  and  _148
REMARK   58  A    between atoms: _148  and  _149
REMARK   59  A    between atoms: _155  and  _157
REMARK   60  A    between atoms: _157  and  _158
REMARK   61  A    between atoms: _157  and  _160
REMARK   62  A    between atoms: _160  and  _161
REMARK   63  A    between atoms: _166  and  _168
REMARK   64  A    between atoms: _168  and  _169
REMARK   65  A    between atoms: _168  and  _171
REMARK   66  A    between atoms: _171  and  _172
REMARK   67  A    between atoms: _177  and  _179
REMARK   68  A    between atoms: _179  and  _180
REMARK   69  A    between atoms: _179  and  _182
REMARK   70  A    between atoms: _182  and  _183
REMARK   71  A    between atoms: _188  and  _190
REMARK   72  A    between atoms: _190  and  _191
REMARK   73  A    between atoms: _190  and  _193
REMARK   74  A    between atoms: _193  and  _194
REMARK   75  A    between atoms: _199  and  _200
REMARK   76  A    between atoms: _202  and  _204
REMARK   77  A    between atoms: _204  and  _205
REMARK   78  A    between atoms: _204  and  _207
REMARK   79  A    between atoms: _207  and  _208
REMARK   80  A    between atoms: _213  and  _214
REMARK   81  A    between atoms: _216  and  _218
REMARK   82  A    between atoms: _218  and  _219
REMARK   83  A    between atoms: _218  and  _221
REMARK   84  A    between atoms: _221  and  _222
REMARK   85  A    between atoms: _222  and  _223
REMARK   86  A    between atoms: _225  and  _227
REMARK   87  A    between atoms: _227  and  _228
REMARK   88  A    between atoms: _227  and  _230
REMARK   89  A    between atoms: _230  and  _231
REMARK   90  A    between atoms: _241  and  _243
REMARK   91  A    between atoms: _243  and  _244
REMARK   92  A    between atoms: _243  and  _246
REMARK   93  A    between atoms: _246  and  _247
REMARK   94  A    between atoms: _250  and  _252
REMARK   95  A    between atoms: _252  and  _253
REMARK   96  A    between atoms: _252  and  _255
REMARK   97  A    between atoms: _255  and  _256
REMARK   98  A    between atoms: _256  and  _257
REMARK   99  A    between atoms: _260  and  _262
REMARK  100  A    between atoms: _262  and  _263
REMARK  101  A    between atoms: _262  and  _265
REMARK  102  A    between atoms: _265  and  _266
REMARK  103  A    between atoms: _271  and  _273
REMARK  104  A    between atoms: _273  and  _274
REMARK  105  A    between atoms: _276  and  _278
REMARK  106  A    between atoms: _278  and  _279
REMARK  107  A    between atoms: _282  and  _284
REMARK  108  A    between atoms: _284  and  _285
REMARK  109  A    between atoms: _288  and  _290
REMARK  110  A    between atoms: _290  and  _291
REMARK  111  A    between atoms: _290  and  _293
REMARK  112  A    between atoms: _293  and  _294
REMARK  113  A    between atoms: _304  and  _306
REMARK  114  A    between atoms: _306  and  _307
REMARK  115  A    between atoms: _306  and  _309
REMARK  116  A    between atoms: _309  and  _310
REMARK  117  A    between atoms: _312  and  _314
REMARK  118  A    between atoms: _314  and  _315
REMARK  119  A    between atoms: _314  and  _317
REMARK  120  A    between atoms: _317  and  _318
REMARK  121  A    between atoms: _323  and  _325
REMARK  122  A    between atoms: _325  and  _326
REMARK  123  A    between atoms: _325  and  _328
REMARK  124  A    between atoms: _328  and  _329
REMARK  125  A    between atoms: _335  and  _337
REMARK  126  A    between atoms: _337  and  _338
REMARK  127  A    between atoms: _337  and  _340
REMARK  128  A    between atoms: _340  and  _341
REMARK  129  A    between atoms: _341  and  _342
REMARK  130  A    between atoms: _345  and  _347
REMARK  131  A    between atoms: _347  and  _348
REMARK  132  A    between atoms: _347  and  _350
REMARK  133  A    between atoms: _350  and  _351
REMARK  134  A    between atoms: _361  and  _363
REMARK  135  A    between atoms: _363  and  _364
REMARK  136  A    between atoms: _367  and  _369
REMARK  137  A    between atoms: _369  and  _370
REMARK  138  A    between atoms: _369  and  _372
REMARK  139  A    between atoms: _372  and  _373
REMARK  140  A    between atoms: _373  and  _374
REMARK  141  A    between atoms: _377  and  _379
REMARK  142  A    between atoms: _379  and  _380
REMARK  143  A    between atoms: _379  and  _382
REMARK  144  A    between atoms: _382  and  _383
REMARK  145  A    between atoms: _383  and  _384
REMARK  146  A    between atoms: _384  and  _385
REMARK  147  A    between atoms: _385  and  _386
REMARK  148  A    between atoms: _390  and  _392
REMARK  149  A    between atoms: _392  and  _393
REMARK  150  A    between atoms: _392  and  _395
REMARK  151  A    between atoms: _395  and  _396
REMARK                            x       y       z     vdW  Elec       q    Type
REMARK                         _______ _______ _______ _____ _____    ______ ____
ROOT
ATOM      1  CA  TYR A   2      -5.983  11.700  17.393  0.00  0.00    +0.153 C 
ENDROOT
BRANCH   1   4
ATOM      2  C   ASN A   1      -4.002  13.116  17.301  0.00  0.00    +0.239 C 
ATOM      3  O   ASN A   1      -3.488  12.555  18.249  0.00  0.00    -0.274 OA
ATOM      4  N   TYR A   2      -5.188  12.764  16.806  0.00  0.00    -0.297 N 
ATOM      5  H   TYR A   2      -5.556  13.267  15.973  0.00  0.00    +0.150 HD
BRANCH   2   6
ATOM      6  CA  ASN A   1      -3.273  14.244  16.610  0.00  0.00    +0.154 C 
BRANCH   6   7
ATOM      7  N   ASN A   1      -2.505  14.963  17.614  0.00  0.00    -0.238 NA
ATOM      8  H   ASN A   1      -1.560  14.612  17.869  0.00  0.00    +0.142 HD
ENDBRANCH   6   7
BRANCH   6   9
ATOM      9  CB  ASN A   1      -2.350  13.641  15.530  0.00  0.00    +0.111 C 
BRANCH   9  10
ATOM     10  CG  ASN A   1      -1.603  14.694  14.730  0.00  0.00    +0.221 C 
ATOM     11  OD1 ASN A   1      -1.899  15.885  14.784  0.00  0.00    -0.275 OA
ATOM     12  ND2 ASN A   1      -0.624  14.240  13.958  0.00  0.00    -0.329 N 
ATOM     13 HD21 ASN A   1      -0.404  13.224  13.941  0.00  0.00    +0.145 HD
ATOM     14 HD22 ASN A   1      -0.076  14.901  13.370  0.00  0.00    +0.145 HD
ENDBRANCH   9  10
ENDBRANCH   6   9
ENDBRANCH   2   6
ENDBRANCH   1   4
BRANCH   1  15
ATOM     15  C   TYR A   2      -6.939  11.103  16.343  0.00  0.00    +0.241 C 
ATOM     16  N   TYR A   3      -6.938   9.772  16.227  0.00  0.00    -0.298 N 
ATOM     17  H   TYR A   3      -6.285   9.231  16.829  0.00  0.00    +0.150 HD
ATOM     18  O   TYR A   2      -7.629  11.861  15.654  0.00  0.00    -0.273 OA
BRANCH  16  19
ATOM     19  CA  TYR A   3      -7.800   9.024  15.303  0.00  0.00    +0.141 C 
BRANCH  19  20
ATOM     20  C   TYR A   3      -8.572   7.880  15.970  0.00  0.00    +0.227 C 
ATOM     21  O   TYR A   3      -9.725   7.608  15.620  0.00  0.00    -0.286 OA
ENDBRANCH  19  20
BRANCH  19  22
ATOM     22  CB  TYR A   3      -6.953   8.388  14.173  0.00  0.00    +0.054 C 
BRANCH  22  23
ATOM     23  CG  TYR A   3      -6.348   9.414  13.265  0.00  0.00    -0.020 A 
ATOM     24  CD2 TYR A   3      -5.124  10.008  13.562  0.00  0.00    -0.001 A 
ATOM     25  CE2 TYR A   3      -4.583  10.997  12.731  0.00  0.00    +0.036 A 
ATOM     26  CZ  TYR A   3      -5.285  11.364  11.596  0.00  0.00    +0.134 A 
ATOM     27  CE1 TYR A   3      -6.510  10.784  11.295  0.00  0.00    +0.036 A 
ATOM     28  CD1 TYR A   3      -7.032   9.829  12.133  0.00  0.00    -0.001 A 
BRANCH  26  29
ATOM     29  OH  TYR A   3      -4.807  12.292  10.738  0.00  0.00    -0.506 OA
ATOM     30  HH  TYR A   3      -3.934  12.624  11.066  0.00  0.00    +0.292 HD
ENDBRANCH  26  29
ENDBRANCH  22  23
ENDBRANCH  19  22
ENDBRANCH  16  19
ENDBRANCH   1  15
BRANCH   1  31
ATOM     31  CB  TYR A   2      -6.827  12.200  18.586  0.00  0.00    +0.055 C 
BRANCH  31  32
ATOM     32  CG  TYR A   2      -7.708  11.090  19.083  0.00  0.00    -0.020 A 
ATOM     33  CD2 TYR A   2      -7.207  10.132  19.944  0.00  0.00    -0.001 A 
ATOM     34  CE2 TYR A   2      -7.990   9.051  20.367  0.00  0.00    +0.036 A 
ATOM     35  CZ  TYR A   2      -9.276   8.928  19.908  0.00  0.00    +0.134 A 
ATOM     36  CE1 TYR A   2      -9.815   9.865  19.043  0.00  0.00    +0.036 A 
ATOM     37  CD1 TYR A   2      -9.024  10.938  18.608  0.00  0.00    -0.001 A 
BRANCH  35  38
ATOM     38  OH  TYR A   2     -10.011   7.856  20.347  0.00  0.00    -0.506 OA
ATOM     39  HH  TYR A   2     -10.810   8.182  20.833  0.00  0.00    +0.292 HD
ENDBRANCH  35  38
ENDBRANCH  31  32
ENDBRANCH   1  31
TORSDOF 14
REMARK  Name = ../refined-set-2016/2j75/2j75_pocket.pdb
REMARK  151 active torsions:
REMARK  status: ('A' for Active; 'I' for Inactive)
REMARK    1  A    between atoms: _1  and  _3
REMARK    2  A    between atoms: _3  and  _4
REMARK    3  A    between atoms: _7  and  _9
REMARK    4  A    between atoms: _9  and  _10
REMARK    5  A    between atoms: _9  and  _12
REMARK    6  A    between atoms: _12  and  _13
REMARK    7  A    between atoms: _16  and  _18
REMARK    8  A    between atoms: _18  and  _19
REMARK    9  A    between atoms: _22  and  _24
REMARK   10  A    between atoms: _24  and  _25
REMARK   11  A    between atoms: _24  and  _27
REMARK   12  A    between atoms: _27  and  _28
REMARK   13  A    between atoms: _30  and  _32
REMARK   14  A    between atoms: _32  and  _33
REMARK   15  A    between atoms: _32  and  _35
REMARK   16  A    between atoms: _35  and  _36
REMARK   17  A    between atoms: _36  and  _37
REMARK   18  A    between atoms: _42  and  _44
REMARK   19  A    between atoms: _44  and  _45
REMARK   20  A    between atoms: _44  and  _47
REMARK   21  A    between atoms: _47  and  _48
REMARK   22  A    between atoms: _48  and  _49
REMARK   23  A    between atoms: _49  and  _50
REMARK   24  A    between atoms: _59  and  _61
REMARK   25  A    between atoms: _61  and  _62
REMARK   26  A    between atoms: _61  and  _64
REMARK   27  A    between atoms: _64  and  _65
REMARK   28  A    between atoms: _68  and  _70
REMARK   29  A    between atoms: _70  and  _71
REMARK   30  A    between atoms: _70  and  _73
REMARK   31  A    between atoms: _73  and  _74
REMARK   32  A    between atoms: _79  and  _81
REMARK   33  A    between atoms: _81  and  _82
REMARK   34  A    between atoms: _81  and  _84
REMARK   35  A    between atoms: _84  and  _85
REMARK   36  A    between atoms: _95  and  _97
REMARK   37  A    between atoms: _97  and  _98
REMARK   38  A    between atoms: _97  and  _100
REMARK   39  A    between atoms: _100  and  _101
REMARK   40  A    between atoms: _106  and  _108
REMARK   41  A    between atoms: _108  and  _109
REMARK   42  A    between atoms: _108  and  _111
REMARK   43  A    between atoms: _111  and  _112
REMARK   44  A    between atoms: _112  and  _113
REMARK   45  A    between atoms: _116  and  _118
REMARK   46  A    between atoms: _118  and  _119
REMARK   47  A    between atoms: _118  and  _121
REMARK   48  A    between atoms: _124  and  _126
REMARK   49  A    between atoms: _126  and  _127
REMARK   50  A    between atoms: _126  and  _129
REMARK   51  A    between atoms: _129  and  _130
REMARK   52  A    between atoms: _135  and  _137
REMARK   53  A    between atoms: _137  and  _138
REMARK   54  A    between atoms: _137  and  _140
REMARK   55  A    between atoms: _143  and  _145
REMARK   56  A    between atoms: _145  and  _146
REMARK   57  A    between atoms: _145  and  _148
REMARK   58  A    between atoms: _148  and  _149
REMARK   59  A    between atoms: _155  and  _157
REMARK   60  A    between atoms: _157  and  _158
REMARK   61  A    between atoms: _157  and  _160
REMARK   62  A    between atoms: _160  and  _161
REMARK   63  A    between atoms: _166  and  _168
REMARK   64  A    between atoms: _168  and  _169
REMARK   65  A    between atoms: _168  and  _171
REMARK   66  A    between atoms: _171  and  _172
REMARK   67  A    between atoms: _177  and  _179
REMARK   68  A    between atoms: _179  and  _180
REMARK   69  A    between atoms: _179  and  _182
REMARK   70  A    between atoms: _182  and  _183
REMARK   71  A    between atoms: _188  and  _190
REMARK   72  A    between atoms: _190  and  _191
REMARK   73  A    between atoms: _190  and  _193
REMARK   74  A    between atoms: _193  and  _194
REMARK   75  A    between atoms: _199  and  _200
REMARK   76  A    between atoms: _202  and  _204
REMARK   77  A    between atoms: _204  and  _205
REMARK   78  A    between atoms: _204  and  _207
REMARK   79  A    between atoms: _207  and  _208
REMARK   80  A    between atoms: _213  and  _214
REMARK   81  A    between atoms: _216  and  _218
REMARK   82  A    between atoms: _218  and  _219
REMARK   83  A    between atoms: _218  and  _221
REMARK   84  A    between atoms: _221  and  _222
REMARK   85  A    between atoms: _222  and  _223
REMARK   86  A    between atoms: _225  and  _227
REMARK   87  A    between atoms: _227  and  _228
REMARK   88  A    between atoms: _227  and  _230
REMARK   89  A    between atoms: _230  and  _231
REMARK   90  A    between atoms: _241  and  _243
REMARK   91  A    between atoms: _243  and  _244
REMARK   92  A    between atoms: _243  and  _246
REMARK   93  A    between atoms: _246  and  _247
REMARK   94  A    between atoms: _250  and  _252
REMARK   95  A    between atoms: _252  and  _253
REMARK   96  A    between atoms: _252  and  _255
REMARK   97  A    between atoms: _255  and  _256
REMARK   98  A    between atoms: _256  and  _257
REMARK   99  A    between atoms: _260  and  _262
REMARK  100  A    between atoms: _262  and  _263
REMARK  101  A    between atoms: _262  and  _265
REMARK  102  A    between atoms: _265  and  _266
REMARK  103  A    between atoms: _271  and  _273
REMARK  104  A    between atoms: _273  and  _274
REMARK  105  A    between atoms: _276  and  _278
REMARK  106  A    between atoms: _278  and  _279
REMARK  107  A    between atoms: _282  and  _284
REMARK  108  A    between atoms: _284  and  _285
REMARK  109  A    between atoms: _288  and  _290
REMARK  110  A    between atoms: _290  and  _291
REMARK  111  A    between atoms: _290  and  _293
REMARK  112  A    between atoms: _293  and  _294
REMARK  113  A    between atoms: _304  and  _306
REMARK  114  A    between atoms: _306  and  _307
REMARK  115  A    between atoms: _306  and  _309
REMARK  116  A    between atoms: _309  and  _310
REMARK  117  A    between atoms: _312  and  _314
REMARK  118  A    between atoms: _314  and  _315
REMARK  119  A    between atoms: _314  and  _317
REMARK  120  A    between atoms: _317  and  _318
REMARK  121  A    between atoms: _323  and  _325
REMARK  122  A    between atoms: _325  and  _326
REMARK  123  A    between atoms: _325  and  _328
REMARK  124  A    between atoms: _328  and  _329
REMARK  125  A    between atoms: _335  and  _337
REMARK  126  A    between atoms: _337  and  _338
REMARK  127  A    between atoms: _337  and  _340
REMARK  128  A    between atoms: _340  and  _341
REMARK  129  A    between atoms: _341  and  _342
REMARK  130  A    between atoms: _345  and  _347
REMARK  131  A    between atoms: _347  and  _348
REMARK  132  A    between atoms: _347  and  _350
REMARK  133  A    between atoms: _350  and  _351
REMARK  134  A    between atoms: _361  and  _363
REMARK  135  A    between atoms: _363  and  _364
REMARK  136  A    between atoms: _367  and  _369
REMARK  137  A    between atoms: _369  and  _370
REMARK  138  A    between atoms: _369  and  _372
REMARK  139  A    between atoms: _372  and  _373
REMARK  140  A    between atoms: _373  and  _374
REMARK  141  A    between atoms: _377  and  _379
REMARK  142  A    between atoms: _379  and  _380
REMARK  143  A    between atoms: _379  and  _382
REMARK  144  A    between atoms: _382  and  _383
REMARK  145  A    between atoms: _383  and  _384
REMARK  146  A    between atoms: _384  and  _385
REMARK  147  A    between atoms: _385  and  _386
REMARK  148  A    between atoms: _390  and  _392
REMARK  149  A    between atoms: _392  and  _393
REMARK  150  A    between atoms: _392  and  _395
REMARK  151  A    between atoms: _395  and  _396
REMARK                            x       y       z     vdW  Elec       q    Type
REMARK                         _______ _______ _______ _____ _____    ______ ____
ROOT
ATOM      1  CA  MET A   1      -7.891   1.589   8.153  0.00  0.00    +0.134 C 
ENDROOT
BRANCH   1   2
ATOM      2  N   MET A   1      -9.206   1.970   7.612  0.00  0.00    -0.239 NA
ATOM      3  H   MET A   1      -9.698   2.797   8.007  0.00  0.00    +0.142 HD
ENDBRANCH   1   2
BRANCH   1   4
ATOM      4  C   MET A   1      -8.007   0.390   9.092  0.00  0.00    +0.224 C 
ATOM      5  O   MET A   1      -6.997  -0.216   9.472  0.00  0.00    -0.287 OA
ENDBRANCH   1   4
BRANCH   1   6
ATOM      6  CB  MET A   1      -7.241   2.745   8.921  0.00  0.00    +0.037 C 
BRANCH   6   7
ATOM      7  CG  MET A   1      -7.012   4.028   8.129  0.00  0.00    +0.059 C 
BRANCH   7   8
ATOM      8  SD  MET A   1      -5.817   3.914   6.792  0.00  0.00    -0.139 S 
ATOM      9  CE  MET A   1      -4.265   3.628   7.628  0.00  0.00    +0.069 C 
ENDBRANCH   7   8
ENDBRANCH   6   7
ENDBRANCH   1   6
TORSDOF 5
REMARK  Name = ../refined-set-2016/2j75/2j75_pocket.pdb
REMARK  151 active torsions:
REMARK  status: ('A' for Active; 'I' for Inactive)
REMARK    1  A    between atoms: _1  and  _3
REMARK    2  A    between atoms: _3  and  _4
REMARK    3  A    between atoms: _7  and  _9
REMARK    4  A    between atoms: _9  and  _10
REMARK    5  A    between atoms: _9  and  _12
REMARK    6  A    between atoms: _12  and  _13
REMARK    7  A    between atoms: _16  and  _18
REMARK    8  A    between atoms: _18  and  _19
REMARK    9  A    between atoms: _22  and  _24
REMARK   10  A    between atoms: _24  and  _25
REMARK   11  A    between atoms: _24  and  _27
REMARK   12  A    between atoms: _27  and  _28
REMARK   13  A    between atoms: _30  and  _32
REMARK   14  A    between atoms: _32  and  _33
REMARK   15  A    between atoms: _32  and  _35
REMARK   16  A    between atoms: _35  and  _36
REMARK   17  A    between atoms: _36  and  _37
REMARK   18  A    between atoms: _42  and  _44
REMARK   19  A    between atoms: _44  and  _45
REMARK   20  A    between atoms: _44  and  _47
REMARK   21  A    between atoms: _47  and  _48
REMARK   22  A    between atoms: _48  and  _49
REMARK   23  A    between atoms: _49  and  _50
REMARK   24  A    between atoms: _59  and  _61
REMARK   25  A    between atoms: _61  and  _62
REMARK   26  A    between atoms: _61  and  _64
REMARK   27  A    between atoms: _64  and  _65
REMARK   28  A    between atoms: _68  and  _70
REMARK   29  A    between atoms: _70  and  _71
REMARK   30  A    between atoms: _70  and  _73
REMARK   31  A    between atoms: _73  and  _74
REMARK   32  A    between atoms: _79  and  _81
REMARK   33  A    between atoms: _81  and  _82
REMARK   34  A    between atoms: _81  and  _84
REMARK   35  A    between atoms: _84  and  _85
REMARK   36  A    between atoms: _95  and  _97
REMARK   37  A    between atoms: _97  and  _98
REMARK   38  A    between atoms: _97  and  _100
REMARK   39  A    between atoms: _100  and  _101
REMARK   40  A    between atoms: _106  and  _108
REMARK   41  A    between atoms: _108  and  _109
REMARK   42  A    between atoms: _108  and  _111
REMARK   43  A    between atoms: _111  and  _112
REMARK   44  A    between atoms: _112  and  _113
REMARK   45  A    between atoms: _116  and  _118
REMARK   46  A    between atoms: _118  and  _119
REMARK   47  A    between atoms: _118  and  _121
REMARK   48  A    between atoms: _124  and  _126
REMARK   49  A    between atoms: _126  and  _127
REMARK   50  A    between atoms: _126  and  _129
REMARK   51  A    between atoms: _129  and  _130
REMARK   52  A    between atoms: _135  and  _137
REMARK   53  A    between atoms: _137  and  _138
REMARK   54  A    between atoms: _137  and  _140
REMARK   55  A    between atoms: _143  and  _145
REMARK   56  A    between atoms: _145  and  _146
REMARK   57  A    between atoms: _145  and  _148
REMARK   58  A    between atoms: _148  and  _149
REMARK   59  A    between atoms: _155  and  _157
REMARK   60  A    between atoms: _157  and  _158
REMARK   61  A    between atoms: _157  and  _160
REMARK   62  A    between atoms: _160  and  _161
REMARK   63  A    between atoms: _166  and  _168
REMARK   64  A    between atoms: _168  and  _169
REMARK   65  A    between atoms: _168  and  _171
REMARK   66  A    between atoms: _171  and  _172
REMARK   67  A    between atoms: _177  and  _179
REMARK   68  A    between atoms: _179  and  _180
REMARK   69  A    between atoms: _179  and  _182
REMARK   70  A    between atoms: _182  and  _183
REMARK   71  A    between atoms: _188  and  _190
REMARK   72  A    between atoms: _190  and  _191
REMARK   73  A    between atoms: _190  and  _193
REMARK   74  A    between atoms: _193  and  _194
REMARK   75  A    between atoms: _199  and  _200
REMARK   76  A    between atoms: _202  and  _204
REMARK   77  A    between atoms: _204  and  _205
REMARK   78  A    between atoms: _204  and  _207
REMARK   79  A    between atoms: _207  and  _208
REMARK   80  A    between atoms: _213  and  _214
REMARK   81  A    between atoms: _216  and  _218
REMARK   82  A    between atoms: _218  and  _219
REMARK   83  A    between atoms: _218  and  _221
REMARK   84  A    between atoms: _221  and  _222
REMARK   85  A    between atoms: _222  and  _223
REMARK   86  A    between atoms: _225  and  _227
REMARK   87  A    between atoms: _227  and  _228
REMARK   88  A    between atoms: _227  and  _230
REMARK   89  A    between atoms: _230  and  _231
REMARK   90  A    between atoms: _241  and  _243
REMARK   91  A    between atoms: _243  and  _244
REMARK   92  A    between atoms: _243  and  _246
REMARK   93  A    between atoms: _246  and  _247
REMARK   94  A    between atoms: _250  and  _252
REMARK   95  A    between atoms: _252  and  _253
REMARK   96  A    between atoms: _252  and  _255
REMARK   97  A    between atoms: _255  and  _256
REMARK   98  A    between atoms: _256  and  _257
REMARK   99  A    between atoms: _260  and  _262
REMARK  100  A    between atoms: _262  and  _263
REMARK  101  A    between atoms: _262  and  _265
REMARK  102  A    between atoms: _265  and  _266
REMARK  103  A    between atoms: _271  and  _273
REMARK  104  A    between atoms: _273  and  _274
REMARK  105  A    between atoms: _276  and  _278
REMARK  106  A    between atoms: _278  and  _279
REMARK  107  A    between atoms: _282  and  _284
REMARK  108  A    between atoms: _284  and  _285
REMARK  109  A    between atoms: _288  and  _290
REMARK  110  A    between atoms: _290  and  _291
REMARK  111  A    between atoms: _290  and  _293
REMARK  112  A    between atoms: _293  and  _294
REMARK  113  A    between atoms: _304  and  _306
REMARK  114  A    between atoms: _306  and  _307
REMARK  115  A    between atoms: _306  and  _309
REMARK  116  A    between atoms: _309  and  _310
REMARK  117  A    between atoms: _312  and  _314
REMARK  118  A    between atoms: _314  and  _315
REMARK  119  A    between atoms: _314  and  _317
REMARK  120  A    between atoms: _317  and  _318
REMARK  121  A    between atoms: _323  and  _325
REMARK  122  A    between atoms: _325  and  _326
REMARK  123  A    between atoms: _325  and  _328
REMARK  124  A    between atoms: _328  and  _329
REMARK  125  A    between atoms: _335  and  _337
REMARK  126  A    between atoms: _337  and  _338
REMARK  127  A    between atoms: _337  and  _340
REMARK  128  A    between atoms: _340  and  _341
REMARK  129  A    between atoms: _341  and  _342
REMARK  130  A    between atoms: _345  and  _347
REMARK  131  A    between atoms: _347  and  _348
REMARK  132  A    between atoms: _347  and  _350
REMARK  133  A    between atoms: _350  and  _351
REMARK  134  A    between atoms: _361  and  _363
REMARK  135  A    between atoms: _363  and  _364
REMARK  136  A    between atoms: _367  and  _369
REMARK  137  A    between atoms: _369  and  _370
REMARK  138  A    between atoms: _369  and  _372
REMARK  139  A    between atoms: _372  and  _373
REMARK  140  A    between atoms: _373  and  _374
REMARK  141  A    between atoms: _377  and  _379
REMARK  142  A    between atoms: _379  and  _380
REMARK  143  A    between atoms: _379  and  _382
REMARK  144  A    between atoms: _382  and  _383
REMARK  145  A    between atoms: _383  and  _384
REMARK  146  A    between atoms: _384  and  _385
REMARK  147  A    between atoms: _385  and  _386
REMARK  148  A    between atoms: _390  and  _392
REMARK  149  A    between atoms: _392  and  _393
REMARK  150  A    between atoms: _392  and  _395
REMARK  151  A    between atoms: _395  and  _396
REMARK                            x       y       z     vdW  Elec       q    Type
REMARK                         _______ _______ _______ _____ _____    ______ ____
ROOT
ATOM      1  CG  TRP A   1      -7.168   3.114  12.511  0.00  0.00    -0.002 A 
ATOM      2  CD1 TRP A   1      -6.328   2.046  12.421  0.00  0.00    +0.068 A 
ATOM      3  NE1 TRP A   1      -5.154   2.416  11.825  0.00  0.00    -0.352 N 
ATOM      4  HE1 TRP A   1      -4.360   1.780  11.611  0.00  0.00    +0.166 HD
ATOM      5  CE2 TRP A   1      -5.192   3.760  11.555  0.00  0.00    +0.056 A 
ATOM      6  CZ2 TRP A   1      -4.225   4.590  10.957  0.00  0.00    +0.017 A 
ATOM      7  CH2 TRP A   1      -4.554   5.924  10.783  0.00  0.00    +0.001 A 
ATOM      8  CZ3 TRP A   1      -5.801   6.429  11.190  0.00  0.00    +0.000 A 
ATOM      9  CE3 TRP A   1      -6.756   5.601  11.784  0.00  0.00    +0.001 A 
ATOM     10  CD2 TRP A   1      -6.452   4.236  11.964  0.00  0.00    +0.013 A 
ENDROOT
BRANCH   1  11
ATOM     11  CB  TRP A   1      -8.564   3.116  13.089  0.00  0.00    +0.053 C 
BRANCH  11  12
ATOM     12  CA  TRP A   1      -9.194   1.726  13.274  0.00  0.00    +0.137 C 
BRANCH  12  13
ATOM     13  N   TRP A   1      -9.332   1.030  11.990  0.00  0.00    -0.239 NA
ATOM     14  H   TRP A   1      -9.441   1.590  11.120  0.00  0.00    +0.142 HD
ENDBRANCH  12  13
BRANCH  12  15
ATOM     15  C   TRP A   1     -10.563   1.881  13.955  0.00  0.00    +0.224 C 
ATOM     16  O   TRP A   1     -11.501   2.425  13.362  0.00  0.00    -0.287 OA
ENDBRANCH  12  15
ENDBRANCH  11  12
ENDBRANCH   1  11
TORSDOF 4
REMARK  Name = ../refined-set-2016/2j75/2j75_pocket.pdb
REMARK  151 active torsions:
REMARK  status: ('A' for Active; 'I' for Inactive)
REMARK    1  A    between atoms: _1  and  _3
REMARK    2  A    between atoms: _3  and  _4
REMARK    3  A    between atoms: _7  and  _9
REMARK    4  A    between atoms: _9  and  _10
REMARK    5  A    between atoms: _9  and  _12
REMARK    6  A    between atoms: _12  and  _13
REMARK    7  A    between atoms: _16  and  _18
REMARK    8  A    between atoms: _18  and  _19
REMARK    9  A    between atoms: _22  and  _24
REMARK   10  A    between atoms: _24  and  _25
REMARK   11  A    between atoms: _24  and  _27
REMARK   12  A    between atoms: _27  and  _28
REMARK   13  A    between atoms: _30  and  _32
REMARK   14  A    between atoms: _32  and  _33
REMARK   15  A    between atoms: _32  and  _35
REMARK   16  A    between atoms: _35  and  _36
REMARK   17  A    between atoms: _36  and  _37
REMARK   18  A    between atoms: _42  and  _44
REMARK   19  A    between atoms: _44  and  _45
REMARK   20  A    between atoms: _44  and  _47
REMARK   21  A    between atoms: _47  and  _48
REMARK   22  A    between atoms: _48  and  _49
REMARK   23  A    between atoms: _49  and  _50
REMARK   24  A    between atoms: _59  and  _61
REMARK   25  A    between atoms: _61  and  _62
REMARK   26  A    between atoms: _61  and  _64
REMARK   27  A    between atoms: _64  and  _65
REMARK   28  A    between atoms: _68  and  _70
REMARK   29  A    between atoms: _70  and  _71
REMARK   30  A    between atoms: _70  and  _73
REMARK   31  A    between atoms: _73  and  _74
REMARK   32  A    between atoms: _79  and  _81
REMARK   33  A    between atoms: _81  and  _82
REMARK   34  A    between atoms: _81  and  _84
REMARK   35  A    between atoms: _84  and  _85
REMARK   36  A    between atoms: _95  and  _97
REMARK   37  A    between atoms: _97  and  _98
REMARK   38  A    between atoms: _97  and  _100
REMARK   39  A    between atoms: _100  and  _101
REMARK   40  A    between atoms: _106  and  _108
REMARK   41  A    between atoms: _108  and  _109
REMARK   42  A    between atoms: _108  and  _111
REMARK   43  A    between atoms: _111  and  _112
REMARK   44  A    between atoms: _112  and  _113
REMARK   45  A    between atoms: _116  and  _118
REMARK   46  A    between atoms: _118  and  _119
REMARK   47  A    between atoms: _118  and  _121
REMARK   48  A    between atoms: _124  and  _126
REMARK   49  A    between atoms: _126  and  _127
REMARK   50  A    between atoms: _126  and  _129
REMARK   51  A    between atoms: _129  and  _130
REMARK   52  A    between atoms: _135  and  _137
REMARK   53  A    between atoms: _137  and  _138
REMARK   54  A    between atoms: _137  and  _140
REMARK   55  A    between atoms: _143  and  _145
REMARK   56  A    between atoms: _145  and  _146
REMARK   57  A    between atoms: _145  and  _148
REMARK   58  A    between atoms: _148  and  _149
REMARK   59  A    between atoms: _155  and  _157
REMARK   60  A    between atoms: _157  and  _158
REMARK   61  A    between atoms: _157  and  _160
REMARK   62  A    between atoms: _160  and  _161
REMARK   63  A    between atoms: _166  and  _168
REMARK   64  A    between atoms: _168  and  _169
REMARK   65  A    between atoms: _168  and  _171
REMARK   66  A    between atoms: _171  and  _172
REMARK   67  A    between atoms: _177  and  _179
REMARK   68  A    between atoms: _179  and  _180
REMARK   69  A    between atoms: _179  and  _182
REMARK   70  A    between atoms: _182  and  _183
REMARK   71  A    between atoms: _188  and  _190
REMARK   72  A    between atoms: _190  and  _191
REMARK   73  A    between atoms: _190  and  _193
REMARK   74  A    between atoms: _193  and  _194
REMARK   75  A    between atoms: _199  and  _200
REMARK   76  A    between atoms: _202  and  _204
REMARK   77  A    between atoms: _204  and  _205
REMARK   78  A    between atoms: _204  and  _207
REMARK   79  A    between atoms: _207  and  _208
REMARK   80  A    between atoms: _213  and  _214
REMARK   81  A    between atoms: _216  and  _218
REMARK   82  A    between atoms: _218  and  _219
REMARK   83  A    between atoms: _218  and  _221
REMARK   84  A    between atoms: _221  and  _222
REMARK   85  A    between atoms: _222  and  _223
REMARK   86  A    between atoms: _225  and  _227
REMARK   87  A    between atoms: _227  and  _228
REMARK   88  A    between atoms: _227  and  _230
REMARK   89  A    between atoms: _230  and  _231
REMARK   90  A    between atoms: _241  and  _243
REMARK   91  A    between atoms: _243  and  _244
REMARK   92  A    between atoms: _243  and  _246
REMARK   93  A    between atoms: _246  and  _247
REMARK   94  A    between atoms: _250  and  _252
REMARK   95  A    between atoms: _252  and  _253
REMARK   96  A    between atoms: _252  and  _255
REMARK   97  A    between atoms: _255  and  _256
REMARK   98  A    between atoms: _256  and  _257
REMARK   99  A    between atoms: _260  and  _262
REMARK  100  A    between atoms: _262  and  _263
REMARK  101  A    between atoms: _262  and  _265
REMARK  102  A    between atoms: _265  and  _266
REMARK  103  A    between atoms: _271  and  _273
REMARK  104  A    between atoms: _273  and  _274
REMARK  105  A    between atoms: _276  and  _278
REMARK  106  A    between atoms: _278  and  _279
REMARK  107  A    between atoms: _282  and  _284
REMARK  108  A    between atoms: _284  and  _285
REMARK  109  A    between atoms: _288  and  _290
REMARK  110  A    between atoms: _290  and  _291
REMARK  111  A    between atoms: _290  and  _293
REMARK  112  A    between atoms: _293  and  _294
REMARK  113  A    between atoms: _304  and  _306
REMARK  114  A    between atoms: _306  and  _307
REMARK  115  A    between atoms: _306  and  _309
REMARK  116  A    between atoms: _309  and  _310
REMARK  117  A    between atoms: _312  and  _314
REMARK  118  A    between atoms: _314  and  _315
REMARK  119  A    between atoms: _314  and  _317
REMARK  120  A    between atoms: _317  and  _318
REMARK  121  A    between atoms: _323  and  _325
REMARK  122  A    between atoms: _325  and  _326
REMARK  123  A    between atoms: _325  and  _328
REMARK  124  A    between atoms: _328  and  _329
REMARK  125  A    between atoms: _335  and  _337
REMARK  126  A    between atoms: _337  and  _338
REMARK  127  A    between atoms: _337  and  _340
REMARK  128  A    between atoms: _340  and  _341
REMARK  129  A    between atoms: _341  and  _342
REMARK  130  A    between atoms: _345  and  _347
REMARK  131  A    between atoms: _347  and  _348
REMARK  132  A    between atoms: _347  and  _350
REMARK  133  A    between atoms: _350  and  _351
REMARK  134  A    between atoms: _361  and  _363
REMARK  135  A    between atoms: _363  and  _364
REMARK  136  A    between atoms: _367  and  _369
REMARK  137  A    between atoms: _369  and  _370
REMARK  138  A    between atoms: _369  and  _372
REMARK  139  A    between atoms: _372  and  _373
REMARK  140  A    between atoms: _373  and  _374
REMARK  141  A    between atoms: _377  and  _379
REMARK  142  A    between atoms: _379  and  _380
REMARK  143  A    between atoms: _379  and  _382
REMARK  144  A    between atoms: _382  and  _383
REMARK  145  A    between atoms: _383  and  _384
REMARK  146  A    between atoms: _384  and  _385
REMARK  147  A    between atoms: _385  and  _386
REMARK  148  A    between atoms: _390  and  _392
REMARK  149  A    between atoms: _392  and  _393
REMARK  150  A    between atoms: _392  and  _395
REMARK  151  A    between atoms: _395  and  _396
REMARK                            x       y       z     vdW  Elec       q    Type
REMARK                         _______ _______ _______ _____ _____    ______ ____
ROOT
ATOM      1  CA  ASN A   3      -8.406  14.333  13.306  0.00  0.00    +0.158 C 
ENDROOT
BRANCH   1   2
ATOM      2  C   ASN A   3      -9.122  14.082  11.983  0.00  0.00    +0.241 C 
ATOM      3  N   GLY A   4      -9.485  12.840  11.725  0.00  0.00    -0.295 N 
ATOM      4  H   GLY A   4      -9.356  12.108  12.453  0.00  0.00    +0.150 HD
ATOM      5  O   ASN A   3      -9.323  15.013  11.199  0.00  0.00    -0.273 OA
BRANCH   3   6
ATOM      6  CA  GLY A   4     -10.069  12.473  10.427  0.00  0.00    +0.176 C 
BRANCH   6   7
ATOM      7  C   GLY A   4     -10.263  10.990  10.299  0.00  0.00    +0.243 C 
ATOM      8  O   GLY A   4      -9.985  10.245  11.239  0.00  0.00    -0.273 OA
ATOM      9  N   ALA A   5     -10.741  10.546   9.139  0.00  0.00    -0.297 N 
ATOM     10  H   ALA A   5     -10.894  11.220   8.361  0.00  0.00    +0.150 HD
BRANCH   9  11
ATOM     11  CA  ALA A   5     -11.058   9.125   8.931  0.00  0.00    +0.149 C 
ATOM     12  CB  ALA A   5     -12.463   8.789   9.491  0.00  0.00    +0.031 C 
BRANCH  11  13
ATOM     13  C   ALA A   5     -10.967   8.707   7.471  0.00  0.00    +0.241 C 
ATOM     14  N   ALA A   6     -10.553   7.465   7.250  0.00  0.00    -0.298 N 
ATOM     15  H   ALA A   6     -10.244   6.876   8.050  0.00  0.00    +0.150 HD
ATOM     16  O   ALA A   5     -11.249   9.502   6.570  0.00  0.00    -0.273 OA
BRANCH  14  17
ATOM     17  CA  ALA A   6     -10.527   6.916   5.898  0.00  0.00    +0.137 C 
ATOM     18  CB  ALA A   6      -9.275   6.080   5.676  0.00  0.00    +0.030 C 
BRANCH  17  19
ATOM     19  C   ALA A   6     -11.752   6.058   5.739  0.00  0.00    +0.227 C 
ATOM     20  O   ALA A   6     -12.017   5.197   6.578  0.00  0.00    -0.286 OA
ENDBRANCH  17  19
ENDBRANCH  14  17
ENDBRANCH  11  13
ENDBRANCH   9  11
ENDBRANCH   6   7
ENDBRANCH   3   6
ENDBRANCH   1   2
BRANCH   1  23
ATOM     21  C   GLU A   2      -6.216  15.459  13.716  0.00  0.00    +0.241 C 
ATOM     22  O   GLU A   2      -6.038  15.035  14.855  0.00  0.00    -0.273 OA
ATOM     23  N   ASN A   3      -7.306  15.252  12.976  0.00  0.00    -0.297 N 
ATOM     24  H   ASN A   3      -7.385  15.787  12.088  0.00  0.00    +0.150 HD
BRANCH  21  25
ATOM     25  CA  GLU A   2      -5.120  16.247  13.022  0.00  0.00    +0.149 C 
BRANCH  25  27
ATOM     26  C   THR A   1      -3.901  18.307  13.588  0.00  0.00    +0.241 C 
ATOM     27  N   GLU A   2      -4.529  17.189  13.960  0.00  0.00    -0.297 N 
ATOM     28  H   GLU A   2      -4.600  16.980  14.976  0.00  0.00    +0.150 HD
ATOM     29  O   THR A   1      -3.605  18.572  12.413  0.00  0.00    -0.274 OA
BRANCH  26  30
ATOM     30  CA  THR A   1      -3.564  19.294  14.720  0.00  0.00    +0.172 C 
BRANCH  30  31
ATOM     31  CB  THR A   1      -2.046  19.387  14.940  0.00  0.00    +0.135 C 
ATOM     32  CG2 THR A   1      -1.668  20.822  15.443  0.00  0.00    +0.034 C 
BRANCH  31  33
ATOM     33  OG1 THR A   1      -1.662  18.393  15.902  0.00  0.00    -0.383 OA
ATOM     34  HG1 THR A   1      -1.899  17.495  15.560  0.00  0.00    +0.210 HD
ENDBRANCH  31  33
ENDBRANCH  30  31
BRANCH  30  35
ATOM     35  N   THR A   1      -4.263  18.985  15.990  0.00  0.00    -0.236 NA
ATOM     36  H   THR A   1      -3.827  18.333  16.673  0.00  0.00    +0.142 HD
ENDBRANCH  30  35
ENDBRANCH  26  30
ENDBRANCH  25  27
BRANCH  25  37
ATOM     37  CB  GLU A   2      -4.117  15.201  12.542  0.00  0.00    +0.041 C 
BRANCH  37  38
ATOM     38  CG  GLU A   2      -3.002  15.722  11.641  0.00  0.00    +0.116 C 
BRANCH  38  39
ATOM     39  CD  GLU A   2      -2.054  14.632  11.161  0.00  0.00    +0.365 C 
ATOM     40  OE2 GLU A   2      -2.468  13.461  11.044  0.00  0.00    -0.246 OA
ATOM     41  OE1 GLU A   2      -0.892  14.967  10.868  0.00  0.00    -0.246 OA
ENDBRANCH  38  39
ENDBRANCH  37  38
ENDBRANCH  25  37
ENDBRANCH  21  25
ENDBRANCH   1  23
BRANCH   1  42
ATOM     42  CB  ASN A   3      -9.380  14.964  14.323  0.00  0.00    +0.114 C 
BRANCH  42  43
ATOM     43  CG  ASN A   3     -10.559  14.035  14.676  0.00  0.00    +0.222 C 
ATOM     44  ND2 ASN A   3     -10.264  12.814  15.113  0.00  0.00    -0.329 N 
ATOM     45 HD21 ASN A   3     -11.026  12.159  15.381  0.00  0.00    +0.145 HD
ATOM     46 HD22 ASN A   3      -9.271  12.514  15.187  0.00  0.00    +0.145 HD
ATOM     47  OD1 ASN A   3     -11.727  14.441  14.570  0.00  0.00    -0.275 OA
ENDBRANCH  42  43
ENDBRANCH   1  42
TORSDOF 19
REMARK  Name = ../refined-set-2016/2j75/2j75_pocket.pdb
REMARK  151 active torsions:
REMARK  status: ('A' for Active; 'I' for Inactive)
REMARK    1  A    between atoms: _1  and  _3
REMARK    2  A    between atoms: _3  and  _4
REMARK    3  A    between atoms: _7  and  _9
REMARK    4  A    between atoms: _9  and  _10
REMARK    5  A    between atoms: _9  and  _12
REMARK    6  A    between atoms: _12  and  _13
REMARK    7  A    between atoms: _16  and  _18
REMARK    8  A    between atoms: _18  and  _19
REMARK    9  A    between atoms: _22  and  _24
REMARK   10  A    between atoms: _24  and  _25
REMARK   11  A    between atoms: _24  and  _27
REMARK   12  A    between atoms: _27  and  _28
REMARK   13  A    between atoms: _30  and  _32
REMARK   14  A    between atoms: _32  and  _33
REMARK   15  A    between atoms: _32  and  _35
REMARK   16  A    between atoms: _35  and  _36
REMARK   17  A    between atoms: _36  and  _37
REMARK   18  A    between atoms: _42  and  _44
REMARK   19  A    between atoms: _44  and  _45
REMARK   20  A    between atoms: _44  and  _47
REMARK   21  A    between atoms: _47  and  _48
REMARK   22  A    between atoms: _48  and  _49
REMARK   23  A    between atoms: _49  and  _50
REMARK   24  A    between atoms: _59  and  _61
REMARK   25  A    between atoms: _61  and  _62
REMARK   26  A    between atoms: _61  and  _64
REMARK   27  A    between atoms: _64  and  _65
REMARK   28  A    between atoms: _68  and  _70
REMARK   29  A    between atoms: _70  and  _71
REMARK   30  A    between atoms: _70  and  _73
REMARK   31  A    between atoms: _73  and  _74
REMARK   32  A    between atoms: _79  and  _81
REMARK   33  A    between atoms: _81  and  _82
REMARK   34  A    between atoms: _81  and  _84
REMARK   35  A    between atoms: _84  and  _85
REMARK   36  A    between atoms: _95  and  _97
REMARK   37  A    between atoms: _97  and  _98
REMARK   38  A    between atoms: _97  and  _100
REMARK   39  A    between atoms: _100  and  _101
REMARK   40  A    between atoms: _106  and  _108
REMARK   41  A    between atoms: _108  and  _109
REMARK   42  A    between atoms: _108  and  _111
REMARK   43  A    between atoms: _111  and  _112
REMARK   44  A    between atoms: _112  and  _113
REMARK   45  A    between atoms: _116  and  _118
REMARK   46  A    between atoms: _118  and  _119
REMARK   47  A    between atoms: _118  and  _121
REMARK   48  A    between atoms: _124  and  _126
REMARK   49  A    between atoms: _126  and  _127
REMARK   50  A    between atoms: _126  and  _129
REMARK   51  A    between atoms: _129  and  _130
REMARK   52  A    between atoms: _135  and  _137
REMARK   53  A    between atoms: _137  and  _138
REMARK   54  A    between atoms: _137  and  _140
REMARK   55  A    between atoms: _143  and  _145
REMARK   56  A    between atoms: _145  and  _146
REMARK   57  A    between atoms: _145  and  _148
REMARK   58  A    between atoms: _148  and  _149
REMARK   59  A    between atoms: _155  and  _157
REMARK   60  A    between atoms: _157  and  _158
REMARK   61  A    between atoms: _157  and  _160
REMARK   62  A    between atoms: _160  and  _161
REMARK   63  A    between atoms: _166  and  _168
REMARK   64  A    between atoms: _168  and  _169
REMARK   65  A    between atoms: _168  and  _171
REMARK   66  A    between atoms: _171  and  _172
REMARK   67  A    between atoms: _177  and  _179
REMARK   68  A    between atoms: _179  and  _180
REMARK   69  A    between atoms: _179  and  _182
REMARK   70  A    between atoms: _182  and  _183
REMARK   71  A    between atoms: _188  and  _190
REMARK   72  A    between atoms: _190  and  _191
REMARK   73  A    between atoms: _190  and  _193
REMARK   74  A    between atoms: _193  and  _194
REMARK   75  A    between atoms: _199  and  _200
REMARK   76  A    between atoms: _202  and  _204
REMARK   77  A    between atoms: _204  and  _205
REMARK   78  A    between atoms: _204  and  _207
REMARK   79  A    between atoms: _207  and  _208
REMARK   80  A    between atoms: _213  and  _214
REMARK   81  A    between atoms: _216  and  _218
REMARK   82  A    between atoms: _218  and  _219
REMARK   83  A    between atoms: _218  and  _221
REMARK   84  A    between atoms: _221  and  _222
REMARK   85  A    between atoms: _222  and  _223
REMARK   86  A    between atoms: _225  and  _227
REMARK   87  A    between atoms: _227  and  _228
REMARK   88  A    between atoms: _227  and  _230
REMARK   89  A    between atoms: _230  and  _231
REMARK   90  A    between atoms: _241  and  _243
REMARK   91  A    between atoms: _243  and  _244
REMARK   92  A    between atoms: _243  and  _246
REMARK   93  A    between atoms: _246  and  _247
REMARK   94  A    between atoms: _250  and  _252
REMARK   95  A    between atoms: _252  and  _253
REMARK   96  A    between atoms: _252  and  _255
REMARK   97  A    between atoms: _255  and  _256
REMARK   98  A    between atoms: _256  and  _257
REMARK   99  A    between atoms: _260  and  _262
REMARK  100  A    between atoms: _262  and  _263
REMARK  101  A    between atoms: _262  and  _265
REMARK  102  A    between atoms: _265  and  _266
REMARK  103  A    between atoms: _271  and  _273
REMARK  104  A    between atoms: _273  and  _274
REMARK  105  A    between atoms: _276  and  _278
REMARK  106  A    between atoms: _278  and  _279
REMARK  107  A    between atoms: _282  and  _284
REMARK  108  A    between atoms: _284  and  _285
REMARK  109  A    between atoms: _288  and  _290
REMARK  110  A    between atoms: _290  and  _291
REMARK  111  A    between atoms: _290  and  _293
REMARK  112  A    between atoms: _293  and  _294
REMARK  113  A    between atoms: _304  and  _306
REMARK  114  A    between atoms: _306  and  _307
REMARK  115  A    between atoms: _306  and  _309
REMARK  116  A    between atoms: _309  and  _310
REMARK  117  A    between atoms: _312  and  _314
REMARK  118  A    between atoms: _314  and  _315
REMARK  119  A    between atoms: _314  and  _317
REMARK  120  A    between atoms: _317  and  _318
REMARK  121  A    between atoms: _323  and  _325
REMARK  122  A    between atoms: _325  and  _326
REMARK  123  A    between atoms: _325  and  _328
REMARK  124  A    between atoms: _328  and  _329
REMARK  125  A    between atoms: _335  and  _337
REMARK  126  A    between atoms: _337  and  _338
REMARK  127  A    between atoms: _337  and  _340
REMARK  128  A    between atoms: _340  and  _341
REMARK  129  A    between atoms: _341  and  _342
REMARK  130  A    between atoms: _345  and  _347
REMARK  131  A    between atoms: _347  and  _348
REMARK  132  A    between atoms: _347  and  _350
REMARK  133  A    between atoms: _350  and  _351
REMARK  134  A    between atoms: _361  and  _363
REMARK  135  A    between atoms: _363  and  _364
REMARK  136  A    between atoms: _367  and  _369
REMARK  137  A    between atoms: _369  and  _370
REMARK  138  A    between atoms: _369  and  _372
REMARK  139  A    between atoms: _372  and  _373
REMARK  140  A    between atoms: _373  and  _374
REMARK  141  A    between atoms: _377  and  _379
REMARK  142  A    between atoms: _379  and  _380
REMARK  143  A    between atoms: _379  and  _382
REMARK  144  A    between atoms: _382  and  _383
REMARK  145  A    between atoms: _383  and  _384
REMARK  146  A    between atoms: _384  and  _385
REMARK  147  A    between atoms: _385  and  _386
REMARK  148  A    between atoms: _390  and  _392
REMARK  149  A    between atoms: _392  and  _393
REMARK  150  A    between atoms: _392  and  _395
REMARK  151  A    between atoms: _395  and  _396
REMARK                            x       y       z     vdW  Elec       q    Type
REMARK                         _______ _______ _______ _____ _____    ______ ____
ROOT
ATOM      1  CA  TRP A   1      -6.902  15.539   8.320  0.00  0.00    +0.149 C 
ENDROOT
BRANCH   1   2
ATOM      2  C   TRP A   1      -7.856  14.768   7.418  0.00  0.00    +0.239 C 
ATOM      3  O   TRP A   1      -8.607  13.908   7.915  0.00  0.00    -0.274 OA
ATOM      4  N   SER A   2      -7.872  15.056   6.119  0.00  0.00    -0.296 N 
ATOM      5  H   SER A   2      -8.566  14.549   5.534  0.00  0.00    +0.150 HD
BRANCH   4   6
ATOM      6  CA  SER A   2      -7.004  16.021   5.432  0.00  0.00    +0.166 C 
BRANCH   6   7
ATOM      7  C   SER A   2      -7.877  16.857   4.487  0.00  0.00    +0.229 C 
ATOM      8  O   SER A   2      -9.020  16.485   4.233  0.00  0.00    -0.286 OA
ENDBRANCH   6   7
BRANCH   6   9
ATOM      9  CB  SER A   2      -5.953  15.199   4.634  0.00  0.00    +0.165 C 
BRANCH   9  10
ATOM     10  OG  SER A   2      -5.143  16.026   3.807  0.00  0.00    -0.380 OA
ATOM     11  H   SER A   2      -4.660  16.682   4.370  0.00  0.00    +0.211 HD
ENDBRANCH   9  10
ENDBRANCH   6   9
ENDBRANCH   4   6
ENDBRANCH   1   2
BRANCH   1  12
ATOM     12  N   TRP A   1      -7.764  16.271   9.247  0.00  0.00    -0.238 NA
ATOM     13  H   TRP A   1      -8.130  15.789  10.093  0.00  0.00    +0.142 HD
ENDBRANCH   1  12
BRANCH   1  14
ATOM     14  CB  TRP A   1      -5.987  14.536   9.050  0.00  0.00    +0.054 C 
BRANCH  14  15
ATOM     15  CG  TRP A   1      -5.065  13.875   8.025  0.00  0.00    -0.002 A 
ATOM     16  CD2 TRP A   1      -3.834  14.410   7.544  0.00  0.00    +0.013 A 
ATOM     17  CE3 TRP A   1      -3.087  15.556   7.859  0.00  0.00    +0.001 A 
ATOM     18  CZ3 TRP A   1      -1.862  15.765   7.188  0.00  0.00    +0.000 A 
ATOM     19  CH2 TRP A   1      -1.400  14.859   6.197  0.00  0.00    +0.001 A 
ATOM     20  CZ2 TRP A   1      -2.124  13.737   5.863  0.00  0.00    +0.017 A 
ATOM     21  CE2 TRP A   1      -3.346  13.523   6.550  0.00  0.00    +0.056 A 
ATOM     22  NE1 TRP A   1      -4.258  12.499   6.439  0.00  0.00    -0.352 N 
ATOM     23  HE1 TRP A   1      -4.193  11.692   5.787  0.00  0.00    +0.166 HD
ATOM     24  CD1 TRP A   1      -5.284  12.732   7.353  0.00  0.00    +0.068 A 
ENDBRANCH  14  15
ENDBRANCH   1  14
TORSDOF 8
REMARK  Name = ../refined-set-2016/2j75/2j75_pocket.pdb
REMARK  151 active torsions:
REMARK  status: ('A' for Active; 'I' for Inactive)
REMARK    1  A    between atoms: _1  and  _3
REMARK    2  A    between atoms: _3  and  _4
REMARK    3  A    between atoms: _7  and  _9
REMARK    4  A    between atoms: _9  and  _10
REMARK    5  A    between atoms: _9  and  _12
REMARK    6  A    between atoms: _12  and  _13
REMARK    7  A    between atoms: _16  and  _18
REMARK    8  A    between atoms: _18  and  _19
REMARK    9  A    between atoms: _22  and  _24
REMARK   10  A    between atoms: _24  and  _25
REMARK   11  A    between atoms: _24  and  _27
REMARK   12  A    between atoms: _27  and  _28
REMARK   13  A    between atoms: _30  and  _32
REMARK   14  A    between atoms: _32  and  _33
REMARK   15  A    between atoms: _32  and  _35
REMARK   16  A    between atoms: _35  and  _36
REMARK   17  A    between atoms: _36  and  _37
REMARK   18  A    between atoms: _42  and  _44
REMARK   19  A    between atoms: _44  and  _45
REMARK   20  A    between atoms: _44  and  _47
REMARK   21  A    between atoms: _47  and  _48
REMARK   22  A    between atoms: _48  and  _49
REMARK   23  A    between atoms: _49  and  _50
REMARK   24  A    between atoms: _59  and  _61
REMARK   25  A    between atoms: _61  and  _62
REMARK   26  A    between atoms: _61  and  _64
REMARK   27  A    between atoms: _64  and  _65
REMARK   28  A    between atoms: _68  and  _70
REMARK   29  A    between atoms: _70  and  _71
REMARK   30  A    between atoms: _70  and  _73
REMARK   31  A    between atoms: _73  and  _74
REMARK   32  A    between atoms: _79  and  _81
REMARK   33  A    between atoms: _81  and  _82
REMARK   34  A    between atoms: _81  and  _84
REMARK   35  A    between atoms: _84  and  _85
REMARK   36  A    between atoms: _95  and  _97
REMARK   37  A    between atoms: _97  and  _98
REMARK   38  A    between atoms: _97  and  _100
REMARK   39  A    between atoms: _100  and  _101
REMARK   40  A    between atoms: _106  and  _108
REMARK   41  A    between atoms: _108  and  _109
REMARK   42  A    between atoms: _108  and  _111
REMARK   43  A    between atoms: _111  and  _112
REMARK   44  A    between atoms: _112  and  _113
REMARK   45  A    between atoms: _116  and  _118
REMARK   46  A    between atoms: _118  and  _119
REMARK   47  A    between atoms: _118  and  _121
REMARK   48  A    between atoms: _124  and  _126
REMARK   49  A    between atoms: _126  and  _127
REMARK   50  A    between atoms: _126  and  _129
REMARK   51  A    between atoms: _129  and  _130
REMARK   52  A    between atoms: _135  and  _137
REMARK   53  A    between atoms: _137  and  _138
REMARK   54  A    between atoms: _137  and  _140
REMARK   55  A    between atoms: _143  and  _145
REMARK   56  A    between atoms: _145  and  _146
REMARK   57  A    between atoms: _145  and  _148
REMARK   58  A    between atoms: _148  and  _149
REMARK   59  A    between atoms: _155  and  _157
REMARK   60  A    between atoms: _157  and  _158
REMARK   61  A    between atoms: _157  and  _160
REMARK   62  A    between atoms: _160  and  _161
REMARK   63  A    between atoms: _166  and  _168
REMARK   64  A    between atoms: _168  and  _169
REMARK   65  A    between atoms: _168  and  _171
REMARK   66  A    between atoms: _171  and  _172
REMARK   67  A    between atoms: _177  and  _179
REMARK   68  A    between atoms: _179  and  _180
REMARK   69  A    between atoms: _179  and  _182
REMARK   70  A    between atoms: _182  and  _183
REMARK   71  A    between atoms: _188  and  _190
REMARK   72  A    between atoms: _190  and  _191
REMARK   73  A    between atoms: _190  and  _193
REMARK   74  A    between atoms: _193  and  _194
REMARK   75  A    between atoms: _199  and  _200
REMARK   76  A    between atoms: _202  and  _204
REMARK   77  A    between atoms: _204  and  _205
REMARK   78  A    between atoms: _204  and  _207
REMARK   79  A    between atoms: _207  and  _208
REMARK   80  A    between atoms: _213  and  _214
REMARK   81  A    between atoms: _216  and  _218
REMARK   82  A    between atoms: _218  and  _219
REMARK   83  A    between atoms: _218  and  _221
REMARK   84  A    between atoms: _221  and  _222
REMARK   85  A    between atoms: _222  and  _223
REMARK   86  A    between atoms: _225  and  _227
REMARK   87  A    between atoms: _227  and  _228
REMARK   88  A    between atoms: _227  and  _230
REMARK   89  A    between atoms: _230  and  _231
REMARK   90  A    between atoms: _241  and  _243
REMARK   91  A    between atoms: _243  and  _244
REMARK   92  A    between atoms: _243  and  _246
REMARK   93  A    between atoms: _246  and  _247
REMARK   94  A    between atoms: _250  and  _252
REMARK   95  A    between atoms: _252  and  _253
REMARK   96  A    between atoms: _252  and  _255
REMARK   97  A    between atoms: _255  and  _256
REMARK   98  A    between atoms: _256  and  _257
REMARK   99  A    between atoms: _260  and  _262
REMARK  100  A    between atoms: _262  and  _263
REMARK  101  A    between atoms: _262  and  _265
REMARK  102  A    between atoms: _265  and  _266
REMARK  103  A    between atoms: _271  and  _273
REMARK  104  A    between atoms: _273  and  _274
REMARK  105  A    between atoms: _276  and  _278
REMARK  106  A    between atoms: _278  and  _279
REMARK  107  A    between atoms: _282  and  _284
REMARK  108  A    between atoms: _284  and  _285
REMARK  109  A    between atoms: _288  and  _290
REMARK  110  A    between atoms: _290  and  _291
REMARK  111  A    between atoms: _290  and  _293
REMARK  112  A    between atoms: _293  and  _294
REMARK  113  A    between atoms: _304  and  _306
REMARK  114  A    between atoms: _306  and  _307
REMARK  115  A    between atoms: _306  and  _309
REMARK  116  A    between atoms: _309  and  _310
REMARK  117  A    between atoms: _312  and  _314
REMARK  118  A    between atoms: _314  and  _315
REMARK  119  A    between atoms: _314  and  _317
REMARK  120  A    between atoms: _317  and  _318
REMARK  121  A    between atoms: _323  and  _325
REMARK  122  A    between atoms: _325  and  _326
REMARK  123  A    between atoms: _325  and  _328
REMARK  124  A    between atoms: _328  and  _329
REMARK  125  A    between atoms: _335  and  _337
REMARK  126  A    between atoms: _337  and  _338
REMARK  127  A    between atoms: _337  and  _340
REMARK  128  A    between atoms: _340  and  _341
REMARK  129  A    between atoms: _341  and  _342
REMARK  130  A    between atoms: _345  and  _347
REMARK  131  A    between atoms: _347  and  _348
REMARK  132  A    between atoms: _347  and  _350
REMARK  133  A    between atoms: _350  and  _351
REMARK  134  A    between atoms: _361  and  _363
REMARK  135  A    between atoms: _363  and  _364
REMARK  136  A    between atoms: _367  and  _369
REMARK  137  A    between atoms: _369  and  _370
REMARK  138  A    between atoms: _369  and  _372
REMARK  139  A    between atoms: _372  and  _373
REMARK  140  A    between atoms: _373  and  _374
REMARK  141  A    between atoms: _377  and  _379
REMARK  142  A    between atoms: _379  and  _380
REMARK  143  A    between atoms: _379  and  _382
REMARK  144  A    between atoms: _382  and  _383
REMARK  145  A    between atoms: _383  and  _384
REMARK  146  A    between atoms: _384  and  _385
REMARK  147  A    between atoms: _385  and  _386
REMARK  148  A    between atoms: _390  and  _392
REMARK  149  A    between atoms: _392  and  _393
REMARK  150  A    between atoms: _392  and  _395
REMARK  151  A    between atoms: _395  and  _396
REMARK                            x       y       z     vdW  Elec       q    Type
REMARK                         _______ _______ _______ _____ _____    ______ ____
ROOT
ATOM      1  C   GLU A   3      -0.070   6.588   3.032  0.00  0.00    +0.241 C 
ATOM      2  O   GLU A   3      -0.269   5.426   3.357  0.00  0.00    -0.273 OA
ATOM      3  N   TRP A   4       1.157   7.091   2.851  0.00  0.00    -0.297 N 
ATOM      4  H   TRP A   4       1.261   8.015   2.385  0.00  0.00    +0.150 HD
ENDROOT
BRANCH   3   5
ATOM      5  CA  TRP A   4       2.368   6.371   3.294  0.00  0.00    +0.153 C 
BRANCH   5   6
ATOM      6  C   TRP A   4       2.413   4.922   2.757  0.00  0.00    +0.241 C 
ATOM      7  N   ALA A   5       2.669   3.932   3.606  0.00  0.00    -0.297 N 
ATOM      8  H   ALA A   5       2.783   4.145   4.618  0.00  0.00    +0.150 HD
ATOM      9  O   TRP A   4       2.194   4.729   1.576  0.00  0.00    -0.273 OA
BRANCH   7  10
ATOM     10  CA  ALA A   5       2.794   2.547   3.145  0.00  0.00    +0.149 C 
ATOM     11  CB  ALA A   5       3.361   1.676   4.233  0.00  0.00    +0.031 C 
BRANCH  10  12
ATOM     12  C   ALA A   5       1.510   1.939   2.558  0.00  0.00    +0.241 C 
ATOM     13  N   GLU A   6       0.366   2.615   2.746  0.00  0.00    -0.298 N 
ATOM     14  H   GLU A   6       0.378   3.474   3.332  0.00  0.00    +0.150 HD
ATOM     15  O   ALA A   5       1.571   0.875   1.940  0.00  0.00    -0.273 OA
BRANCH  13  16
ATOM     16  CA  GLU A   6      -0.897   2.180   2.151  0.00  0.00    +0.137 C 
BRANCH  16  17
ATOM     17  C   GLU A   6      -1.090   2.784   0.774  0.00  0.00    +0.227 C 
ATOM     18  O   GLU A   6      -2.058   2.458   0.089  0.00  0.00    -0.286 OA
ENDBRANCH  16  17
BRANCH  16  19
ATOM     19  CB  GLU A   6      -2.072   2.622   3.033  0.00  0.00    +0.039 C 
BRANCH  19  20
ATOM     20  CG  GLU A   6      -2.100   1.971   4.374  0.00  0.00    +0.116 C 
BRANCH  20  21
ATOM     21  CD  GLU A   6      -2.740   0.597   4.312  0.00  0.00    +0.365 C 
ATOM     22  OE2 GLU A   6      -2.341  -0.267   5.104  0.00  0.00    -0.246 OA
ATOM     23  OE1 GLU A   6      -3.625   0.388   3.457  0.00  0.00    -0.246 OA
ENDBRANCH  20  21
ENDBRANCH  19  20
ENDBRANCH  16  19
ENDBRANCH  13  16
ENDBRANCH  10  12
ENDBRANCH   7  10
ENDBRANCH   5   6
BRANCH   5  24
ATOM     24  CB  TRP A   4       2.524   6.500   4.823  0.00  0.00    +0.057 C 
BRANCH  24  25
ATOM     25  CG  TRP A   4       2.492   7.955   5.260  0.00  0.00    -0.002 A 
ATOM     26  CD1 TRP A   4       1.569   8.549   6.094  0.00  0.00    +0.068 A 
ATOM     27  NE1 TRP A   4       1.853   9.894   6.224  0.00  0.00    -0.352 N 
ATOM     28  HE1 TRP A   4       1.314  10.571   6.801  0.00  0.00    +0.166 HD
ATOM     29  CE2 TRP A   4       2.961  10.194   5.470  0.00  0.00    +0.056 A 
ATOM     30  CZ2 TRP A   4       3.621  11.431   5.285  0.00  0.00    +0.017 A 
ATOM     31  CH2 TRP A   4       4.729  11.445   4.460  0.00  0.00    +0.001 A 
ATOM     32  CZ3 TRP A   4       5.185  10.258   3.819  0.00  0.00    +0.000 A 
ATOM     33  CE3 TRP A   4       4.507   9.043   3.984  0.00  0.00    +0.001 A 
ATOM     34  CD2 TRP A   4       3.386   9.001   4.841  0.00  0.00    +0.013 A 
ENDBRANCH  24  25
ENDBRANCH   5  24
ENDBRANCH   3   5
BRANCH   1  35
ATOM     35  CA  GLU A   3      -1.242   7.533   2.742  0.00  0.00    +0.149 C 
BRANCH  35  38
ATOM     36  C   PHE A   2      -0.546   8.982   0.945  0.00  0.00    +0.241 C 
ATOM     37  O   PHE A   2       0.112   9.648   1.718  0.00  0.00    -0.273 OA
ATOM     38  N   GLU A   3      -1.197   7.900   1.338  0.00  0.00    -0.297 N 
ATOM     39  H   GLU A   3      -1.681   7.306   0.635  0.00  0.00    +0.150 HD
BRANCH  36  40
ATOM     40  CA  PHE A   2      -0.633   9.348  -0.538  0.00  0.00    +0.153 C 
BRANCH  40  43
ATOM     41  C   ASN A   1      -2.829  10.429  -0.554  0.00  0.00    +0.239 C 
ATOM     42  O   ASN A   1      -3.399   9.388  -0.331  0.00  0.00    -0.274 OA
ATOM     43  N   PHE A   2      -1.512  10.518  -0.692  0.00  0.00    -0.297 N 
ATOM     44  H   PHE A   2      -1.089  11.441  -0.915  0.00  0.00    +0.150 HD
BRANCH  41  45
ATOM     45  CA  ASN A   1      -3.595  11.735  -0.709  0.00  0.00    +0.154 C 
BRANCH  45  46
ATOM     46  N   ASN A   1      -5.011  11.603  -0.402  0.00  0.00    -0.238 NA
ATOM     47  H   ASN A   1      -5.355  10.836   0.210  0.00  0.00    +0.142 HD
ENDBRANCH  45  46
BRANCH  45  48
ATOM     48  CB  ASN A   1      -2.970  12.849   0.149  0.00  0.00    +0.111 C 
BRANCH  48  49
ATOM     49  CG  ASN A   1      -3.130  12.616   1.638  0.00  0.00    +0.221 C 
ATOM     50  OD1 ASN A   1      -3.714  13.441   2.361  0.00  0.00    -0.275 OA
ATOM     51  ND2 ASN A   1      -2.629  11.510   2.110  0.00  0.00    -0.329 N 
ATOM     52 HD21 ASN A   1      -2.711  11.293   3.124  0.00  0.00    +0.145 HD
ATOM     53 HD22 ASN A   1      -2.147  10.844   1.473  0.00  0.00    +0.145 HD
ENDBRANCH  48  49
ENDBRANCH  45  48
ENDBRANCH  41  45
ENDBRANCH  40  43
BRANCH  40  54
ATOM     54  CB  PHE A   2       0.746   9.713  -1.115  0.00  0.00    +0.055 C 
BRANCH  54  55
ATOM     55  CG  PHE A   2       1.795   8.662  -0.911  0.00  0.00    -0.020 A 
ATOM     56  CD2 PHE A   2       2.761   8.811   0.122  0.00  0.00    -0.004 A 
ATOM     57  CE2 PHE A   2       3.770   7.843   0.276  0.00  0.00    -0.000 A 
ATOM     58  CZ  PHE A   2       3.797   6.733  -0.564  0.00  0.00    -0.000 A 
ATOM     59  CE1 PHE A   2       2.870   6.589  -1.599  0.00  0.00    -0.000 A 
ATOM     60  CD1 PHE A   2       1.863   7.567  -1.766  0.00  0.00    -0.004 A 
ENDBRANCH  54  55
ENDBRANCH  40  54
ENDBRANCH  36  40
ENDBRANCH  35  38
BRANCH  35  61
ATOM     61  CB  GLU A   3      -2.607   6.899   3.065  0.00  0.00    +0.041 C 
BRANCH  61  62
ATOM     62  CG  GLU A   3      -2.766   6.364   4.504  0.00  0.00    +0.116 C 
BRANCH  62  63
ATOM     63  CD  GLU A   3      -2.377   7.348   5.596  0.00  0.00    +0.365 C 
ATOM     64  OE2 GLU A   3      -1.812   6.873   6.627  0.00  0.00    -0.246 OA
ATOM     65  OE1 GLU A   3      -2.664   8.569   5.473  0.00  0.00    -0.246 OA
ENDBRANCH  62  63
ENDBRANCH  61  62
ENDBRANCH  35  61
ENDBRANCH   1  35
TORSDOF 24
REMARK  Name = ../refined-set-2016/2j75/2j75_pocket.pdb
REMARK  151 active torsions:
REMARK  status: ('A' for Active; 'I' for Inactive)
REMARK    1  A    between atoms: _1  and  _3
REMARK    2  A    between atoms: _3  and  _4
REMARK    3  A    between atoms: _7  and  _9
REMARK    4  A    between atoms: _9  and  _10
REMARK    5  A    between atoms: _9  and  _12
REMARK    6  A    between atoms: _12  and  _13
REMARK    7  A    between atoms: _16  and  _18
REMARK    8  A    between atoms: _18  and  _19
REMARK    9  A    between atoms: _22  and  _24
REMARK   10  A    between atoms: _24  and  _25
REMARK   11  A    between atoms: _24  and  _27
REMARK   12  A    between atoms: _27  and  _28
REMARK   13  A    between atoms: _30  and  _32
REMARK   14  A    between atoms: _32  and  _33
REMARK   15  A    between atoms: _32  and  _35
REMARK   16  A    between atoms: _35  and  _36
REMARK   17  A    between atoms: _36  and  _37
REMARK   18  A    between atoms: _42  and  _44
REMARK   19  A    between atoms: _44  and  _45
REMARK   20  A    between atoms: _44  and  _47
REMARK   21  A    between atoms: _47  and  _48
REMARK   22  A    between atoms: _48  and  _49
REMARK   23  A    between atoms: _49  and  _50
REMARK   24  A    between atoms: _59  and  _61
REMARK   25  A    between atoms: _61  and  _62
REMARK   26  A    between atoms: _61  and  _64
REMARK   27  A    between atoms: _64  and  _65
REMARK   28  A    between atoms: _68  and  _70
REMARK   29  A    between atoms: _70  and  _71
REMARK   30  A    between atoms: _70  and  _73
REMARK   31  A    between atoms: _73  and  _74
REMARK   32  A    between atoms: _79  and  _81
REMARK   33  A    between atoms: _81  and  _82
REMARK   34  A    between atoms: _81  and  _84
REMARK   35  A    between atoms: _84  and  _85
REMARK   36  A    between atoms: _95  and  _97
REMARK   37  A    between atoms: _97  and  _98
REMARK   38  A    between atoms: _97  and  _100
REMARK   39  A    between atoms: _100  and  _101
REMARK   40  A    between atoms: _106  and  _108
REMARK   41  A    between atoms: _108  and  _109
REMARK   42  A    between atoms: _108  and  _111
REMARK   43  A    between atoms: _111  and  _112
REMARK   44  A    between atoms: _112  and  _113
REMARK   45  A    between atoms: _116  and  _118
REMARK   46  A    between atoms: _118  and  _119
REMARK   47  A    between atoms: _118  and  _121
REMARK   48  A    between atoms: _124  and  _126
REMARK   49  A    between atoms: _126  and  _127
REMARK   50  A    between atoms: _126  and  _129
REMARK   51  A    between atoms: _129  and  _130
REMARK   52  A    between atoms: _135  and  _137
REMARK   53  A    between atoms: _137  and  _138
REMARK   54  A    between atoms: _137  and  _140
REMARK   55  A    between atoms: _143  and  _145
REMARK   56  A    between atoms: _145  and  _146
REMARK   57  A    between atoms: _145  and  _148
REMARK   58  A    between atoms: _148  and  _149
REMARK   59  A    between atoms: _155  and  _157
REMARK   60  A    between atoms: _157  and  _158
REMARK   61  A    between atoms: _157  and  _160
REMARK   62  A    between atoms: _160  and  _161
REMARK   63  A    between atoms: _166  and  _168
REMARK   64  A    between atoms: _168  and  _169
REMARK   65  A    between atoms: _168  and  _171
REMARK   66  A    between atoms: _171  and  _172
REMARK   67  A    between atoms: _177  and  _179
REMARK   68  A    between atoms: _179  and  _180
REMARK   69  A    between atoms: _179  and  _182
REMARK   70  A    between atoms: _182  and  _183
REMARK   71  A    between atoms: _188  and  _190
REMARK   72  A    between atoms: _190  and  _191
REMARK   73  A    between atoms: _190  and  _193
REMARK   74  A    between atoms: _193  and  _194
REMARK   75  A    between atoms: _199  and  _200
REMARK   76  A    between atoms: _202  and  _204
REMARK   77  A    between atoms: _204  and  _205
REMARK   78  A    between atoms: _204  and  _207
REMARK   79  A    between atoms: _207  and  _208
REMARK   80  A    between atoms: _213  and  _214
REMARK   81  A    between atoms: _216  and  _218
REMARK   82  A    between atoms: _218  and  _219
REMARK   83  A    between atoms: _218  and  _221
REMARK   84  A    between atoms: _221  and  _222
REMARK   85  A    between atoms: _222  and  _223
REMARK   86  A    between atoms: _225  and  _227
REMARK   87  A    between atoms: _227  and  _228
REMARK   88  A    between atoms: _227  and  _230
REMARK   89  A    between atoms: _230  and  _231
REMARK   90  A    between atoms: _241  and  _243
REMARK   91  A    between atoms: _243  and  _244
REMARK   92  A    between atoms: _243  and  _246
REMARK   93  A    between atoms: _246  and  _247
REMARK   94  A    between atoms: _250  and  _252
REMARK   95  A    between atoms: _252  and  _253
REMARK   96  A    between atoms: _252  and  _255
REMARK   97  A    between atoms: _255  and  _256
REMARK   98  A    between atoms: _256  and  _257
REMARK   99  A    between atoms: _260  and  _262
REMARK  100  A    between atoms: _262  and  _263
REMARK  101  A    between atoms: _262  and  _265
REMARK  102  A    between atoms: _265  and  _266
REMARK  103  A    between atoms: _271  and  _273
REMARK  104  A    between atoms: _273  and  _274
REMARK  105  A    between atoms: _276  and  _278
REMARK  106  A    between atoms: _278  and  _279
REMARK  107  A    between atoms: _282  and  _284
REMARK  108  A    between atoms: _284  and  _285
REMARK  109  A    between atoms: _288  and  _290
REMARK  110  A    between atoms: _290  and  _291
REMARK  111  A    between atoms: _290  and  _293
REMARK  112  A    between atoms: _293  and  _294
REMARK  113  A    between atoms: _304  and  _306
REMARK  114  A    between atoms: _306  and  _307
REMARK  115  A    between atoms: _306  and  _309
REMARK  116  A    between atoms: _309  and  _310
REMARK  117  A    between atoms: _312  and  _314
REMARK  118  A    between atoms: _314  and  _315
REMARK  119  A    between atoms: _314  and  _317
REMARK  120  A    between atoms: _317  and  _318
REMARK  121  A    between atoms: _323  and  _325
REMARK  122  A    between atoms: _325  and  _326
REMARK  123  A    between atoms: _325  and  _328
REMARK  124  A    between atoms: _328  and  _329
REMARK  125  A    between atoms: _335  and  _337
REMARK  126  A    between atoms: _337  and  _338
REMARK  127  A    between atoms: _337  and  _340
REMARK  128  A    between atoms: _340  and  _341
REMARK  129  A    between atoms: _341  and  _342
REMARK  130  A    between atoms: _345  and  _347
REMARK  131  A    between atoms: _347  and  _348
REMARK  132  A    between atoms: _347  and  _350
REMARK  133  A    between atoms: _350  and  _351
REMARK  134  A    between atoms: _361  and  _363
REMARK  135  A    between atoms: _363  and  _364
REMARK  136  A    between atoms: _367  and  _369
REMARK  137  A    between atoms: _369  and  _370
REMARK  138  A    between atoms: _369  and  _372
REMARK  139  A    between atoms: _372  and  _373
REMARK  140  A    between atoms: _373  and  _374
REMARK  141  A    between atoms: _377  and  _379
REMARK  142  A    between atoms: _379  and  _380
REMARK  143  A    between atoms: _379  and  _382
REMARK  144  A    between atoms: _382  and  _383
REMARK  145  A    between atoms: _383  and  _384
REMARK  146  A    between atoms: _384  and  _385
REMARK  147  A    between atoms: _385  and  _386
REMARK  148  A    between atoms: _390  and  _392
REMARK  149  A    between atoms: _392  and  _393
REMARK  150  A    between atoms: _392  and  _395
REMARK  151  A    between atoms: _395  and  _396
REMARK                            x       y       z     vdW  Elec       q    Type
REMARK                         _______ _______ _______ _____ _____    ______ ____
ROOT
ATOM      1  CG  LYS A   1      -5.847   3.350   3.322  0.00  0.00    -0.000 C 
ENDROOT
BRANCH   1   2
ATOM      2  CB  LYS A   1      -6.179   4.820   3.091  0.00  0.00    +0.025 C 
BRANCH   2   3
ATOM      3  CA  LYS A   1      -6.848   5.111   1.740  0.00  0.00    +0.133 C 
BRANCH   3   4
ATOM      4  N   LYS A   1      -6.086   4.557   0.612  0.00  0.00    -0.239 NA
ATOM      5  H   LYS A   1      -5.152   4.953   0.381  0.00  0.00    +0.142 HD
ENDBRANCH   3   4
BRANCH   3   6
ATOM      6  C   LYS A   1      -7.085   6.593   1.607  0.00  0.00    +0.224 C 
ATOM      7  O   LYS A   1      -6.144   7.373   1.578  0.00  0.00    -0.287 OA
ENDBRANCH   3   6
ENDBRANCH   2   3
ENDBRANCH   1   2
BRANCH   1   8
ATOM      8  CD  LYS A   1      -7.130   2.501   3.581  0.00  0.00    -0.024 C 
BRANCH   8   9
ATOM      9  CE  LYS A   1      -6.755   1.037   3.835  0.00  0.00    -0.086 C 
BRANCH   9  10
ATOM     10  NZ  LYS A   1      -6.503   0.407   2.522  0.00  0.00    +0.380 N 
ATOM     11  HZ1 LYS A   1      -6.245  -0.591   2.661  0.00  0.00    -0.089 HD
ATOM     12  HZ2 LYS A   1      -5.724   0.904   2.044  0.00  0.00    -0.089 HD
ATOM     13  HZ3 LYS A   1      -7.363   0.466   1.940  0.00  0.00    -0.089 HD
ENDBRANCH   9  10
ENDBRANCH   8   9
ENDBRANCH   1   8
TORSDOF 7
REMARK  Name = ../refined-set-2016/2j75/2j75_pocket.pdb
REMARK  151 active torsions:
REMARK  status: ('A' for Active; 'I' for Inactive)
REMARK    1  A    between atoms: _1  and  _3
REMARK    2  A    between atoms: _3  and  _4
REMARK    3  A    between atoms: _7  and  _9
REMARK    4  A    between atoms: _9  and  _10
REMARK    5  A    between atoms: _9  and  _12
REMARK    6  A    between atoms: _12  and  _13
REMARK    7  A    between atoms: _16  and  _18
REMARK    8  A    between atoms: _18  and  _19
REMARK    9  A    between atoms: _22  and  _24
REMARK   10  A    between atoms: _24  and  _25
REMARK   11  A    between atoms: _24  and  _27
REMARK   12  A    between atoms: _27  and  _28
REMARK   13  A    between atoms: _30  and  _32
REMARK   14  A    between atoms: _32  and  _33
REMARK   15  A    between atoms: _32  and  _35
REMARK   16  A    between atoms: _35  and  _36
REMARK   17  A    between atoms: _36  and  _37
REMARK   18  A    between atoms: _42  and  _44
REMARK   19  A    between atoms: _44  and  _45
REMARK   20  A    between atoms: _44  and  _47
REMARK   21  A    between atoms: _47  and  _48
REMARK   22  A    between atoms: _48  and  _49
REMARK   23  A    between atoms: _49  and  _50
REMARK   24  A    between atoms: _59  and  _61
REMARK   25  A    between atoms: _61  and  _62
REMARK   26  A    between atoms: _61  and  _64
REMARK   27  A    between atoms: _64  and  _65
REMARK   28  A    between atoms: _68  and  _70
REMARK   29  A    between atoms: _70  and  _71
REMARK   30  A    between atoms: _70  and  _73
REMARK   31  A    between atoms: _73  and  _74
REMARK   32  A    between atoms: _79  and  _81
REMARK   33  A    between atoms: _81  and  _82
REMARK   34  A    between atoms: _81  and  _84
REMARK   35  A    between atoms: _84  and  _85
REMARK   36  A    between atoms: _95  and  _97
REMARK   37  A    between atoms: _97  and  _98
REMARK   38  A    between atoms: _97  and  _100
REMARK   39  A    between atoms: _100  and  _101
REMARK   40  A    between atoms: _106  and  _108
REMARK   41  A    between atoms: _108  and  _109
REMARK   42  A    between atoms: _108  and  _111
REMARK   43  A    between atoms: _111  and  _112
REMARK   44  A    between atoms: _112  and  _113
REMARK   45  A    between atoms: _116  and  _118
REMARK   46  A    between atoms: _118  and  _119
REMARK   47  A    between atoms: _118  and  _121
REMARK   48  A    between atoms: _124  and  _126
REMARK   49  A    between atoms: _126  and  _127
REMARK   50  A    between atoms: _126  and  _129
REMARK   51  A    between atoms: _129  and  _130
REMARK   52  A    between atoms: _135  and  _137
REMARK   53  A    between atoms: _137  and  _138
REMARK   54  A    between atoms: _137  and  _140
REMARK   55  A    between atoms: _143  and  _145
REMARK   56  A    between atoms: _145  and  _146
REMARK   57  A    between atoms: _145  and  _148
REMARK   58  A    between atoms: _148  and  _149
REMARK   59  A    between atoms: _155  and  _157
REMARK   60  A    between atoms: _157  and  _158
REMARK   61  A    between atoms: _157  and  _160
REMARK   62  A    between atoms: _160  and  _161
REMARK   63  A    between atoms: _166  and  _168
REMARK   64  A    between atoms: _168  and  _169
REMARK   65  A    between atoms: _168  and  _171
REMARK   66  A    between atoms: _171  and  _172
REMARK   67  A    between atoms: _177  and  _179
REMARK   68  A    between atoms: _179  and  _180
REMARK   69  A    between atoms: _179  and  _182
REMARK   70  A    between atoms: _182  and  _183
REMARK   71  A    between atoms: _188  and  _190
REMARK   72  A    between atoms: _190  and  _191
REMARK   73  A    between atoms: _190  and  _193
REMARK   74  A    between atoms: _193  and  _194
REMARK   75  A    between atoms: _199  and  _200
REMARK   76  A    between atoms: _202  and  _204
REMARK   77  A    between atoms: _204  and  _205
REMARK   78  A    between atoms: _204  and  _207
REMARK   79  A    between atoms: _207  and  _208
REMARK   80  A    between atoms: _213  and  _214
REMARK   81  A    between atoms: _216  and  _218
REMARK   82  A    between atoms: _218  and  _219
REMARK   83  A    between atoms: _218  and  _221
REMARK   84  A    between atoms: _221  and  _222
REMARK   85  A    between atoms: _222  and  _223
REMARK   86  A    between atoms: _225  and  _227
REMARK   87  A    between atoms: _227  and  _228
REMARK   88  A    between atoms: _227  and  _230
REMARK   89  A    between atoms: _230  and  _231
REMARK   90  A    between atoms: _241  and  _243
REMARK   91  A    between atoms: _243  and  _244
REMARK   92  A    between atoms: _243  and  _246
REMARK   93  A    between atoms: _246  and  _247
REMARK   94  A    between atoms: _250  and  _252
REMARK   95  A    between atoms: _252  and  _253
REMARK   96  A    between atoms: _252  and  _255
REMARK   97  A    between atoms: _255  and  _256
REMARK   98  A    between atoms: _256  and  _257
REMARK   99  A    between atoms: _260  and  _262
REMARK  100  A    between atoms: _262  and  _263
REMARK  101  A    between atoms: _262  and  _265
REMARK  102  A    between atoms: _265  and  _266
REMARK  103  A    between atoms: _271  and  _273
REMARK  104  A    between atoms: _273  and  _274
REMARK  105  A    between atoms: _276  and  _278
REMARK  106  A    between atoms: _278  and  _279
REMARK  107  A    between atoms: _282  and  _284
REMARK  108  A    between atoms: _284  and  _285
REMARK  109  A    between atoms: _288  and  _290
REMARK  110  A    between atoms: _290  and  _291
REMARK  111  A    between atoms: _290  and  _293
REMARK  112  A    between atoms: _293  and  _294
REMARK  113  A    between atoms: _304  and  _306
REMARK  114  A    between atoms: _306  and  _307
REMARK  115  A    between atoms: _306  and  _309
REMARK  116  A    between atoms: _309  and  _310
REMARK  117  A    between atoms: _312  and  _314
REMARK  118  A    between atoms: _314  and  _315
REMARK  119  A    between atoms: _314  and  _317
REMARK  120  A    between atoms: _317  and  _318
REMARK  121  A    between atoms: _323  and  _325
REMARK  122  A    between atoms: _325  and  _326
REMARK  123  A    between atoms: _325  and  _328
REMARK  124  A    between atoms: _328  and  _329
REMARK  125  A    between atoms: _335  and  _337
REMARK  126  A    between atoms: _337  and  _338
REMARK  127  A    between atoms: _337  and  _340
REMARK  128  A    between atoms: _340  and  _341
REMARK  129  A    between atoms: _341  and  _342
REMARK  130  A    between atoms: _345  and  _347
REMARK  131  A    between atoms: _347  and  _348
REMARK  132  A    between atoms: _347  and  _350
REMARK  133  A    between atoms: _350  and  _351
REMARK  134  A    between atoms: _361  and  _363
REMARK  135  A    between atoms: _363  and  _364
REMARK  136  A    between atoms: _367  and  _369
REMARK  137  A    between atoms: _369  and  _370
REMARK  138  A    between atoms: _369  and  _372
REMARK  139  A    between atoms: _372  and  _373
REMARK  140  A    between atoms: _373  and  _374
REMARK  141  A    between atoms: _377  and  _379
REMARK  142  A    between atoms: _379  and  _380
REMARK  143  A    between atoms: _379  and  _382
REMARK  144  A    between atoms: _382  and  _383
REMARK  145  A    between atoms: _383  and  _384
REMARK  146  A    between atoms: _384  and  _385
REMARK  147  A    between atoms: _385  and  _386
REMARK  148  A    between atoms: _390  and  _392
REMARK  149  A    between atoms: _392  and  _393
REMARK  150  A    between atoms: _392  and  _395
REMARK  151  A    between atoms: _395  and  _396
REMARK                            x       y       z     vdW  Elec       q    Type
REMARK                         _______ _______ _______ _____ _____    ______ ____
ROOT
ATOM      1  CB  PHE A   1      -7.538  10.988   5.055  0.00  0.00    +0.051 C 
ENDROOT
BRANCH   1   2
ATOM      2  CG  PHE A   1      -7.218   9.868   5.994  0.00  0.00    -0.020 A 
ATOM      3  CD2 PHE A   1      -7.728   9.864   7.284  0.00  0.00    -0.004 A 
ATOM      4  CE2 PHE A   1      -7.422   8.841   8.178  0.00  0.00    -0.000 A 
ATOM      5  CZ  PHE A   1      -6.572   7.814   7.799  0.00  0.00    -0.000 A 
ATOM      6  CE1 PHE A   1      -6.043   7.803   6.523  0.00  0.00    -0.000 A 
ATOM      7  CD1 PHE A   1      -6.371   8.825   5.613  0.00  0.00    -0.004 A 
ENDBRANCH   1   2
BRANCH   1   8
ATOM      8  CA  PHE A   1      -8.830  10.797   4.229  0.00  0.00    +0.137 C 
BRANCH   8   9
ATOM      9  N   PHE A   1      -8.541  10.021   3.017  0.00  0.00    -0.239 NA
ATOM     10  H   PHE A   1      -7.715  10.291   2.445  0.00  0.00    +0.142 HD
ENDBRANCH   8   9
BRANCH   8  11
ATOM     11  C   PHE A   1      -9.374  12.214   3.938  0.00  0.00    +0.224 C 
ATOM     12  O   PHE A   1      -9.615  12.983   4.868  0.00  0.00    -0.287 OA
ENDBRANCH   8  11
ENDBRANCH   1   8
TORSDOF 4
REMARK  Name = ../refined-set-2016/2j75/2j75_pocket.pdb
REMARK  151 active torsions:
REMARK  status: ('A' for Active; 'I' for Inactive)
REMARK    1  A    between atoms: _1  and  _3
REMARK    2  A    between atoms: _3  and  _4
REMARK    3  A    between atoms: _7  and  _9
REMARK    4  A    between atoms: _9  and  _10
REMARK    5  A    between atoms: _9  and  _12
REMARK    6  A    between atoms: _12  and  _13
REMARK    7  A    between atoms: _16  and  _18
REMARK    8  A    between atoms: _18  and  _19
REMARK    9  A    between atoms: _22  and  _24
REMARK   10  A    between atoms: _24  and  _25
REMARK   11  A    between atoms: _24  and  _27
REMARK   12  A    between atoms: _27  and  _28
REMARK   13  A    between atoms: _30  and  _32
REMARK   14  A    between atoms: _32  and  _33
REMARK   15  A    between atoms: _32  and  _35
REMARK   16  A    between atoms: _35  and  _36
REMARK   17  A    between atoms: _36  and  _37
REMARK   18  A    between atoms: _42  and  _44
REMARK   19  A    between atoms: _44  and  _45
REMARK   20  A    between atoms: _44  and  _47
REMARK   21  A    between atoms: _47  and  _48
REMARK   22  A    between atoms: _48  and  _49
REMARK   23  A    between atoms: _49  and  _50
REMARK   24  A    between atoms: _59  and  _61
REMARK   25  A    between atoms: _61  and  _62
REMARK   26  A    between atoms: _61  and  _64
REMARK   27  A    between atoms: _64  and  _65
REMARK   28  A    between atoms: _68  and  _70
REMARK   29  A    between atoms: _70  and  _71
REMARK   30  A    between atoms: _70  and  _73
REMARK   31  A    between atoms: _73  and  _74
REMARK   32  A    between atoms: _79  and  _81
REMARK   33  A    between atoms: _81  and  _82
REMARK   34  A    between atoms: _81  and  _84
REMARK   35  A    between atoms: _84  and  _85
REMARK   36  A    between atoms: _95  and  _97
REMARK   37  A    between atoms: _97  and  _98
REMARK   38  A    between atoms: _97  and  _100
REMARK   39  A    between atoms: _100  and  _101
REMARK   40  A    between atoms: _106  and  _108
REMARK   41  A    between atoms: _108  and  _109
REMARK   42  A    between atoms: _108  and  _111
REMARK   43  A    between atoms: _111  and  _112
REMARK   44  A    between atoms: _112  and  _113
REMARK   45  A    between atoms: _116  and  _118
REMARK   46  A    between atoms: _118  and  _119
REMARK   47  A    between atoms: _118  and  _121
REMARK   48  A    between atoms: _124  and  _126
REMARK   49  A    between atoms: _126  and  _127
REMARK   50  A    between atoms: _126  and  _129
REMARK   51  A    between atoms: _129  and  _130
REMARK   52  A    between atoms: _135  and  _137
REMARK   53  A    between atoms: _137  and  _138
REMARK   54  A    between atoms: _137  and  _140
REMARK   55  A    between atoms: _143  and  _145
REMARK   56  A    between atoms: _145  and  _146
REMARK   57  A    between atoms: _145  and  _148
REMARK   58  A    between atoms: _148  and  _149
REMARK   59  A    between atoms: _155  and  _157
REMARK   60  A    between atoms: _157  and  _158
REMARK   61  A    between atoms: _157  and  _160
REMARK   62  A    between atoms: _160  and  _161
REMARK   63  A    between atoms: _166  and  _168
REMARK   64  A    between atoms: _168  and  _169
REMARK   65  A    between atoms: _168  and  _171
REMARK   66  A    between atoms: _171  and  _172
REMARK   67  A    between atoms: _177  and  _179
REMARK   68  A    between atoms: _179  and  _180
REMARK   69  A    between atoms: _179  and  _182
REMARK   70  A    between atoms: _182  and  _183
REMARK   71  A    between atoms: _188  and  _190
REMARK   72  A    between atoms: _190  and  _191
REMARK   73  A    between atoms: _190  and  _193
REMARK   74  A    between atoms: _193  and  _194
REMARK   75  A    between atoms: _199  and  _200
REMARK   76  A    between atoms: _202  and  _204
REMARK   77  A    between atoms: _204  and  _205
REMARK   78  A    between atoms: _204  and  _207
REMARK   79  A    between atoms: _207  and  _208
REMARK   80  A    between atoms: _213  and  _214
REMARK   81  A    between atoms: _216  and  _218
REMARK   82  A    between atoms: _218  and  _219
REMARK   83  A    between atoms: _218  and  _221
REMARK   84  A    between atoms: _221  and  _222
REMARK   85  A    between atoms: _222  and  _223
REMARK   86  A    between atoms: _225  and  _227
REMARK   87  A    between atoms: _227  and  _228
REMARK   88  A    between atoms: _227  and  _230
REMARK   89  A    between atoms: _230  and  _231
REMARK   90  A    between atoms: _241  and  _243
REMARK   91  A    between atoms: _243  and  _244
REMARK   92  A    between atoms: _243  and  _246
REMARK   93  A    between atoms: _246  and  _247
REMARK   94  A    between atoms: _250  and  _252
REMARK   95  A    between atoms: _252  and  _253
REMARK   96  A    between atoms: _252  and  _255
REMARK   97  A    between atoms: _255  and  _256
REMARK   98  A    between atoms: _256  and  _257
REMARK   99  A    between atoms: _260  and  _262
REMARK  100  A    between atoms: _262  and  _263
REMARK  101  A    between atoms: _262  and  _265
REMARK  102  A    between atoms: _265  and  _266
REMARK  103  A    between atoms: _271  and  _273
REMARK  104  A    between atoms: _273  and  _274
REMARK  105  A    between atoms: _276  and  _278
REMARK  106  A    between atoms: _278  and  _279
REMARK  107  A    between atoms: _282  and  _284
REMARK  108  A    between atoms: _284  and  _285
REMARK  109  A    between atoms: _288  and  _290
REMARK  110  A    between atoms: _290  and  _291
REMARK  111  A    between atoms: _290  and  _293
REMARK  112  A    between atoms: _293  and  _294
REMARK  113  A    between atoms: _304  and  _306
REMARK  114  A    between atoms: _306  and  _307
REMARK  115  A    between atoms: _306  and  _309
REMARK  116  A    between atoms: _309  and  _310
REMARK  117  A    between atoms: _312  and  _314
REMARK  118  A    between atoms: _314  and  _315
REMARK  119  A    between atoms: _314  and  _317
REMARK  120  A    between atoms: _317  and  _318
REMARK  121  A    between atoms: _323  and  _325
REMARK  122  A    between atoms: _325  and  _326
REMARK  123  A    between atoms: _325  and  _328
REMARK  124  A    between atoms: _328  and  _329
REMARK  125  A    between atoms: _335  and  _337
REMARK  126  A    between atoms: _337  and  _338
REMARK  127  A    between atoms: _337  and  _340
REMARK  128  A    between atoms: _340  and  _341
REMARK  129  A    between atoms: _341  and  _342
REMARK  130  A    between atoms: _345  and  _347
REMARK  131  A    between atoms: _347  and  _348
REMARK  132  A    between atoms: _347  and  _350
REMARK  133  A    between atoms: _350  and  _351
REMARK  134  A    between atoms: _361  and  _363
REMARK  135  A    between atoms: _363  and  _364
REMARK  136  A    between atoms: _367  and  _369
REMARK  137  A    between atoms: _369  and  _370
REMARK  138  A    between atoms: _369  and  _372
REMARK  139  A    between atoms: _372  and  _373
REMARK  140  A    between atoms: _373  and  _374
REMARK  141  A    between atoms: _377  and  _379
REMARK  142  A    between atoms: _379  and  _380
REMARK  143  A    between atoms: _379  and  _382
REMARK  144  A    between atoms: _382  and  _383
REMARK  145  A    between atoms: _383  and  _384
REMARK  146  A    between atoms: _384  and  _385
REMARK  147  A    between atoms: _385  and  _386
REMARK  148  A    between atoms: _390  and  _392
REMARK  149  A    between atoms: _392  and  _393
REMARK  150  A    between atoms: _392  and  _395
REMARK  151  A    between atoms: _395  and  _396
REMARK                            x       y       z     vdW  Elec       q    Type
REMARK                         _______ _______ _______ _____ _____    ______ ____
ROOT
ATOM      1  O   HOH     1       1.098   6.376   9.822  0.00  0.00    +0.000 OA
ENDROOT
TORSDOF 0
REMARK  Name = ../refined-set-2016/2j75/2j75_pocket.pdb
REMARK  151 active torsions:
REMARK  status: ('A' for Active; 'I' for Inactive)
REMARK    1  A    between atoms: _1  and  _3
REMARK    2  A    between atoms: _3  and  _4
REMARK    3  A    between atoms: _7  and  _9
REMARK    4  A    between atoms: _9  and  _10
REMARK    5  A    between atoms: _9  and  _12
REMARK    6  A    between atoms: _12  and  _13
REMARK    7  A    between atoms: _16  and  _18
REMARK    8  A    between atoms: _18  and  _19
REMARK    9  A    between atoms: _22  and  _24
REMARK   10  A    between atoms: _24  and  _25
REMARK   11  A    between atoms: _24  and  _27
REMARK   12  A    between atoms: _27  and  _28
REMARK   13  A    between atoms: _30  and  _32
REMARK   14  A    between atoms: _32  and  _33
REMARK   15  A    between atoms: _32  and  _35
REMARK   16  A    between atoms: _35  and  _36
REMARK   17  A    between atoms: _36  and  _37
REMARK   18  A    between atoms: _42  and  _44
REMARK   19  A    between atoms: _44  and  _45
REMARK   20  A    between atoms: _44  and  _47
REMARK   21  A    between atoms: _47  and  _48
REMARK   22  A    between atoms: _48  and  _49
REMARK   23  A    between atoms: _49  and  _50
REMARK   24  A    between atoms: _59  and  _61
REMARK   25  A    between atoms: _61  and  _62
REMARK   26  A    between atoms: _61  and  _64
REMARK   27  A    between atoms: _64  and  _65
REMARK   28  A    between atoms: _68  and  _70
REMARK   29  A    between atoms: _70  and  _71
REMARK   30  A    between atoms: _70  and  _73
REMARK   31  A    between atoms: _73  and  _74
REMARK   32  A    between atoms: _79  and  _81
REMARK   33  A    between atoms: _81  and  _82
REMARK   34  A    between atoms: _81  and  _84
REMARK   35  A    between atoms: _84  and  _85
REMARK   36  A    between atoms: _95  and  _97
REMARK   37  A    between atoms: _97  and  _98
REMARK   38  A    between atoms: _97  and  _100
REMARK   39  A    between atoms: _100  and  _101
REMARK   40  A    between atoms: _106  and  _108
REMARK   41  A    between atoms: _108  and  _109
REMARK   42  A    between atoms: _108  and  _111
REMARK   43  A    between atoms: _111  and  _112
REMARK   44  A    between atoms: _112  and  _113
REMARK   45  A    between atoms: _116  and  _118
REMARK   46  A    between atoms: _118  and  _119
REMARK   47  A    between atoms: _118  and  _121
REMARK   48  A    between atoms: _124  and  _126
REMARK   49  A    between atoms: _126  and  _127
REMARK   50  A    between atoms: _126  and  _129
REMARK   51  A    between atoms: _129  and  _130
REMARK   52  A    between atoms: _135  and  _137
REMARK   53  A    between atoms: _137  and  _138
REMARK   54  A    between atoms: _137  and  _140
REMARK   55  A    between atoms: _143  and  _145
REMARK   56  A    between atoms: _145  and  _146
REMARK   57  A    between atoms: _145  and  _148
REMARK   58  A    between atoms: _148  and  _149
REMARK   59  A    between atoms: _155  and  _157
REMARK   60  A    between atoms: _157  and  _158
REMARK   61  A    between atoms: _157  and  _160
REMARK   62  A    between atoms: _160  and  _161
REMARK   63  A    between atoms: _166  and  _168
REMARK   64  A    between atoms: _168  and  _169
REMARK   65  A    between atoms: _168  and  _171
REMARK   66  A    between atoms: _171  and  _172
REMARK   67  A    between atoms: _177  and  _179
REMARK   68  A    between atoms: _179  and  _180
REMARK   69  A    between atoms: _179  and  _182
REMARK   70  A    between atoms: _182  and  _183
REMARK   71  A    between atoms: _188  and  _190
REMARK   72  A    between atoms: _190  and  _191
REMARK   73  A    between atoms: _190  and  _193
REMARK   74  A    between atoms: _193  and  _194
REMARK   75  A    between atoms: _199  and  _200
REMARK   76  A    between atoms: _202  and  _204
REMARK   77  A    between atoms: _204  and  _205
REMARK   78  A    between atoms: _204  and  _207
REMARK   79  A    between atoms: _207  and  _208
REMARK   80  A    between atoms: _213  and  _214
REMARK   81  A    between atoms: _216  and  _218
REMARK   82  A    between atoms: _218  and  _219
REMARK   83  A    between atoms: _218  and  _221
REMARK   84  A    between atoms: _221  and  _222
REMARK   85  A    between atoms: _222  and  _223
REMARK   86  A    between atoms: _225  and  _227
REMARK   87  A    between atoms: _227  and  _228
REMARK   88  A    between atoms: _227  and  _230
REMARK   89  A    between atoms: _230  and  _231
REMARK   90  A    between atoms: _241  and  _243
REMARK   91  A    between atoms: _243  and  _244
REMARK   92  A    between atoms: _243  and  _246
REMARK   93  A    between atoms: _246  and  _247
REMARK   94  A    between atoms: _250  and  _252
REMARK   95  A    between atoms: _252  and  _253
REMARK   96  A    between atoms: _252  and  _255
REMARK   97  A    between atoms: _255  and  _256
REMARK   98  A    between atoms: _256  and  _257
REMARK   99  A    between atoms: _260  and  _262
REMARK  100  A    between atoms: _262  and  _263
REMARK  101  A    between atoms: _262  and  _265
REMARK  102  A    between atoms: _265  and  _266
REMARK  103  A    between atoms: _271  and  _273
REMARK  104  A    between atoms: _273  and  _274
REMARK  105  A    between atoms: _276  and  _278
REMARK  106  A    between atoms: _278  and  _279
REMARK  107  A    between atoms: _282  and  _284
REMARK  108  A    between atoms: _284  and  _285
REMARK  109  A    between atoms: _288  and  _290
REMARK  110  A    between atoms: _290  and  _291
REMARK  111  A    between atoms: _290  and  _293
REMARK  112  A    between atoms: _293  and  _294
REMARK  113  A    between atoms: _304  and  _306
REMARK  114  A    between atoms: _306  and  _307
REMARK  115  A    between atoms: _306  and  _309
REMARK  116  A    between atoms: _309  and  _310
REMARK  117  A    between atoms: _312  and  _314
REMARK  118  A    between atoms: _314  and  _315
REMARK  119  A    between atoms: _314  and  _317
REMARK  120  A    between atoms: _317  and  _318
REMARK  121  A    between atoms: _323  and  _325
REMARK  122  A    between atoms: _325  and  _326
REMARK  123  A    between atoms: _325  and  _328
REMARK  124  A    between atoms: _328  and  _329
REMARK  125  A    between atoms: _335  and  _337
REMARK  126  A    between atoms: _337  and  _338
REMARK  127  A    between atoms: _337  and  _340
REMARK  128  A    between atoms: _340  and  _341
REMARK  129  A    between atoms: _341  and  _342
REMARK  130  A    between atoms: _345  and  _347
REMARK  131  A    between atoms: _347  and  _348
REMARK  132  A    between atoms: _347  and  _350
REMARK  133  A    between atoms: _350  and  _351
REMARK  134  A    between atoms: _361  and  _363
REMARK  135  A    between atoms: _363  and  _364
REMARK  136  A    between atoms: _367  and  _369
REMARK  137  A    between atoms: _369  and  _370
REMARK  138  A    between atoms: _369  and  _372
REMARK  139  A    between atoms: _372  and  _373
REMARK  140  A    between atoms: _373  and  _374
REMARK  141  A    between atoms: _377  and  _379
REMARK  142  A    between atoms: _379  and  _380
REMARK  143  A    between atoms: _379  and  _382
REMARK  144  A    between atoms: _382  and  _383
REMARK  145  A    between atoms: _383  and  _384
REMARK  146  A    between atoms: _384  and  _385
REMARK  147  A    between atoms: _385  and  _386
REMARK  148  A    between atoms: _390  and  _392
REMARK  149  A    between atoms: _392  and  _393
REMARK  150  A    between atoms: _392  and  _395
REMARK  151  A    between atoms: _395  and  _396
REMARK                            x       y       z     vdW  Elec       q    Type
REMARK                         _______ _______ _______ _____ _____    ______ ____
ROOT
ATOM      1  O   UNL     1      -1.482   8.183  14.071  0.00  0.00    +0.000 OA
ATOM      2  O   UNL     1      -1.756   9.669  14.103  0.00  0.00    +0.000 OA
ENDROOT
TORSDOF 0
REMARK  Name = ../refined-set-2016/2j75/2j75_pocket.pdb
REMARK  151 active torsions:
REMARK  status: ('A' for Active; 'I' for Inactive)
REMARK    1  A    between atoms: _1  and  _3
REMARK    2  A    between atoms: _3  and  _4
REMARK    3  A    between atoms: _7  and  _9
REMARK    4  A    between atoms: _9  and  _10
REMARK    5  A    between atoms: _9  and  _12
REMARK    6  A    between atoms: _12  and  _13
REMARK    7  A    between atoms: _16  and  _18
REMARK    8  A    between atoms: _18  and  _19
REMARK    9  A    between atoms: _22  and  _24
REMARK   10  A    between atoms: _24  and  _25
REMARK   11  A    between atoms: _24  and  _27
REMARK   12  A    between atoms: _27  and  _28
REMARK   13  A    between atoms: _30  and  _32
REMARK   14  A    between atoms: _32  and  _33
REMARK   15  A    between atoms: _32  and  _35
REMARK   16  A    between atoms: _35  and  _36
REMARK   17  A    between atoms: _36  and  _37
REMARK   18  A    between atoms: _42  and  _44
REMARK   19  A    between atoms: _44  and  _45
REMARK   20  A    between atoms: _44  and  _47
REMARK   21  A    between atoms: _47  and  _48
REMARK   22  A    between atoms: _48  and  _49
REMARK   23  A    between atoms: _49  and  _50
REMARK   24  A    between atoms: _59  and  _61
REMARK   25  A    between atoms: _61  and  _62
REMARK   26  A    between atoms: _61  and  _64
REMARK   27  A    between atoms: _64  and  _65
REMARK   28  A    between atoms: _68  and  _70
REMARK   29  A    between atoms: _70  and  _71
REMARK   30  A    between atoms: _70  and  _73
REMARK   31  A    between atoms: _73  and  _74
REMARK   32  A    between atoms: _79  and  _81
REMARK   33  A    between atoms: _81  and  _82
REMARK   34  A    between atoms: _81  and  _84
REMARK   35  A    between atoms: _84  and  _85
REMARK   36  A    between atoms: _95  and  _97
REMARK   37  A    between atoms: _97  and  _98
REMARK   38  A    between atoms: _97  and  _100
REMARK   39  A    between atoms: _100  and  _101
REMARK   40  A    between atoms: _106  and  _108
REMARK   41  A    between atoms: _108  and  _109
REMARK   42  A    between atoms: _108  and  _111
REMARK   43  A    between atoms: _111  and  _112
REMARK   44  A    between atoms: _112  and  _113
REMARK   45  A    between atoms: _116  and  _118
REMARK   46  A    between atoms: _118  and  _119
REMARK   47  A    between atoms: _118  and  _121
REMARK   48  A    between atoms: _124  and  _126
REMARK   49  A    between atoms: _126  and  _127
REMARK   50  A    between atoms: _126  and  _129
REMARK   51  A    between atoms: _129  and  _130
REMARK   52  A    between atoms: _135  and  _137
REMARK   53  A    between atoms: _137  and  _138
REMARK   54  A    between atoms: _137  and  _140
REMARK   55  A    between atoms: _143  and  _145
REMARK   56  A    between atoms: _145  and  _146
REMARK   57  A    between atoms: _145  and  _148
REMARK   58  A    between atoms: _148  and  _149
REMARK   59  A    between atoms: _155  and  _157
REMARK   60  A    between atoms: _157  and  _158
REMARK   61  A    between atoms: _157  and  _160
REMARK   62  A    between atoms: _160  and  _161
REMARK   63  A    between atoms: _166  and  _168
REMARK   64  A    between atoms: _168  and  _169
REMARK   65  A    between atoms: _168  and  _171
REMARK   66  A    between atoms: _171  and  _172
REMARK   67  A    between atoms: _177  and  _179
REMARK   68  A    between atoms: _179  and  _180
REMARK   69  A    between atoms: _179  and  _182
REMARK   70  A    between atoms: _182  and  _183
REMARK   71  A    between atoms: _188  and  _190
REMARK   72  A    between atoms: _190  and  _191
REMARK   73  A    between atoms: _190  and  _193
REMARK   74  A    between atoms: _193  and  _194
REMARK   75  A    between atoms: _199  and  _200
REMARK   76  A    between atoms: _202  and  _204
REMARK   77  A    between atoms: _204  and  _205
REMARK   78  A    between atoms: _204  and  _207
REMARK   79  A    between atoms: _207  and  _208
REMARK   80  A    between atoms: _213  and  _214
REMARK   81  A    between atoms: _216  and  _218
REMARK   82  A    between atoms: _218  and  _219
REMARK   83  A    between atoms: _218  and  _221
REMARK   84  A    between atoms: _221  and  _222
REMARK   85  A    between atoms: _222  and  _223
REMARK   86  A    between atoms: _225  and  _227
REMARK   87  A    between atoms: _227  and  _228
REMARK   88  A    between atoms: _227  and  _230
REMARK   89  A    between atoms: _230  and  _231
REMARK   90  A    between atoms: _241  and  _243
REMARK   91  A    between atoms: _243  and  _244
REMARK   92  A    between atoms: _243  and  _246
REMARK   93  A    between atoms: _246  and  _247
REMARK   94  A    between atoms: _250  and  _252
REMARK   95  A    between atoms: _252  and  _253
REMARK   96  A    between atoms: _252  and  _255
REMARK   97  A    between atoms: _255  and  _256
REMARK   98  A    between atoms: _256  and  _257
REMARK   99  A    between atoms: _260  and  _262
REMARK  100  A    between atoms: _262  and  _263
REMARK  101  A    between atoms: _262  and  _265
REMARK  102  A    between atoms: _265  and  _266
REMARK  103  A    between atoms: _271  and  _273
REMARK  104  A    between atoms: _273  and  _274
REMARK  105  A    between atoms: _276  and  _278
REMARK  106  A    between atoms: _278  and  _279
REMARK  107  A    between atoms: _282  and  _284
REMARK  108  A    between atoms: _284  and  _285
REMARK  109  A    between atoms: _288  and  _290
REMARK  110  A    between atoms: _290  and  _291
REMARK  111  A    between atoms: _290  and  _293
REMARK  112  A    between atoms: _293  and  _294
REMARK  113  A    between atoms: _304  and  _306
REMARK  114  A    between atoms: _306  and  _307
REMARK  115  A    between atoms: _306  and  _309
REMARK  116  A    between atoms: _309  and  _310
REMARK  117  A    between atoms: _312  and  _314
REMARK  118  A    between atoms: _314  and  _315
REMARK  119  A    between atoms: _314  and  _317
REMARK  120  A    between atoms: _317  and  _318
REMARK  121  A    between atoms: _323  and  _325
REMARK  122  A    between atoms: _325  and  _326
REMARK  123  A    between atoms: _325  and  _328
REMARK  124  A    between atoms: _328  and  _329
REMARK  125  A    between atoms: _335  and  _337
REMARK  126  A    between atoms: _337  and  _338
REMARK  127  A    between atoms: _337  and  _340
REMARK  128  A    between atoms: _340  and  _341
REMARK  129  A    between atoms: _341  and  _342
REMARK  130  A    between atoms: _345  and  _347
REMARK  131  A    between atoms: _347  and  _348
REMARK  132  A    between atoms: _347  and  _350
REMARK  133  A    between atoms: _350  and  _351
REMARK  134  A    between atoms: _361  and  _363
REMARK  135  A    between atoms: _363  and  _364
REMARK  136  A    between atoms: _367  and  _369
REMARK  137  A    between atoms: _369  and  _370
REMARK  138  A    between atoms: _369  and  _372
REMARK  139  A    between atoms: _372  and  _373
REMARK  140  A    between atoms: _373  and  _374
REMARK  141  A    between atoms: _377  and  _379
REMARK  142  A    between atoms: _379  and  _380
REMARK  143  A    between atoms: _379  and  _382
REMARK  144  A    between atoms: _382  and  _383
REMARK  145  A    between atoms: _383  and  _384
REMARK  146  A    between atoms: _384  and  _385
REMARK  147  A    between atoms: _385  and  _386
REMARK  148  A    between atoms: _390  and  _392
REMARK  149  A    between atoms: _392  and  _393
REMARK  150  A    between atoms: _392  and  _395
REMARK  151  A    between atoms: _395  and  _396
REMARK                            x       y       z     vdW  Elec       q    Type
REMARK                         _______ _______ _______ _____ _____    ______ ____
ROOT
ATOM      1  O   HOH     1       1.564   3.947  13.948  0.00  0.00    +0.000 OA
ENDROOT
TORSDOF 0
REMARK  Name = ../refined-set-2016/2j75/2j75_pocket.pdb
REMARK  151 active torsions:
REMARK  status: ('A' for Active; 'I' for Inactive)
REMARK    1  A    between atoms: _1  and  _3
REMARK    2  A    between atoms: _3  and  _4
REMARK    3  A    between atoms: _7  and  _9
REMARK    4  A    between atoms: _9  and  _10
REMARK    5  A    between atoms: _9  and  _12
REMARK    6  A    between atoms: _12  and  _13
REMARK    7  A    between atoms: _16  and  _18
REMARK    8  A    between atoms: _18  and  _19
REMARK    9  A    between atoms: _22  and  _24
REMARK   10  A    between atoms: _24  and  _25
REMARK   11  A    between atoms: _24  and  _27
REMARK   12  A    between atoms: _27  and  _28
REMARK   13  A    between atoms: _30  and  _32
REMARK   14  A    between atoms: _32  and  _33
REMARK   15  A    between atoms: _32  and  _35
REMARK   16  A    between atoms: _35  and  _36
REMARK   17  A    between atoms: _36  and  _37
REMARK   18  A    between atoms: _42  and  _44
REMARK   19  A    between atoms: _44  and  _45
REMARK   20  A    between atoms: _44  and  _47
REMARK   21  A    between atoms: _47  and  _48
REMARK   22  A    between atoms: _48  and  _49
REMARK   23  A    between atoms: _49  and  _50
REMARK   24  A    between atoms: _59  and  _61
REMARK   25  A    between atoms: _61  and  _62
REMARK   26  A    between atoms: _61  and  _64
REMARK   27  A    between atoms: _64  and  _65
REMARK   28  A    between atoms: _68  and  _70
REMARK   29  A    between atoms: _70  and  _71
REMARK   30  A    between atoms: _70  and  _73
REMARK   31  A    between atoms: _73  and  _74
REMARK   32  A    between atoms: _79  and  _81
REMARK   33  A    between atoms: _81  and  _82
REMARK   34  A    between atoms: _81  and  _84
REMARK   35  A    between atoms: _84  and  _85
REMARK   36  A    between atoms: _95  and  _97
REMARK   37  A    between atoms: _97  and  _98
REMARK   38  A    between atoms: _97  and  _100
REMARK   39  A    between atoms: _100  and  _101
REMARK   40  A    between atoms: _106  and  _108
REMARK   41  A    between atoms: _108  and  _109
REMARK   42  A    between atoms: _108  and  _111
REMARK   43  A    between atoms: _111  and  _112
REMARK   44  A    between atoms: _112  and  _113
REMARK   45  A    between atoms: _116  and  _118
REMARK   46  A    between atoms: _118  and  _119
REMARK   47  A    between atoms: _118  and  _121
REMARK   48  A    between atoms: _124  and  _126
REMARK   49  A    between atoms: _126  and  _127
REMARK   50  A    between atoms: _126  and  _129
REMARK   51  A    between atoms: _129  and  _130
REMARK   52  A    between atoms: _135  and  _137
REMARK   53  A    between atoms: _137  and  _138
REMARK   54  A    between atoms: _137  and  _140
REMARK   55  A    between atoms: _143  and  _145
REMARK   56  A    between atoms: _145  and  _146
REMARK   57  A    between atoms: _145  and  _148
REMARK   58  A    between atoms: _148  and  _149
REMARK   59  A    between atoms: _155  and  _157
REMARK   60  A    between atoms: _157  and  _158
REMARK   61  A    between atoms: _157  and  _160
REMARK   62  A    between atoms: _160  and  _161
REMARK   63  A    between atoms: _166  and  _168
REMARK   64  A    between atoms: _168  and  _169
REMARK   65  A    between atoms: _168  and  _171
REMARK   66  A    between atoms: _171  and  _172
REMARK   67  A    between atoms: _177  and  _179
REMARK   68  A    between atoms: _179  and  _180
REMARK   69  A    between atoms: _179  and  _182
REMARK   70  A    between atoms: _182  and  _183
REMARK   71  A    between atoms: _188  and  _190
REMARK   72  A    between atoms: _190  and  _191
REMARK   73  A    between atoms: _190  and  _193
REMARK   74  A    between atoms: _193  and  _194
REMARK   75  A    between atoms: _199  and  _200
REMARK   76  A    between atoms: _202  and  _204
REMARK   77  A    between atoms: _204  and  _205
REMARK   78  A    between atoms: _204  and  _207
REMARK   79  A    between atoms: _207  and  _208
REMARK   80  A    between atoms: _213  and  _214
REMARK   81  A    between atoms: _216  and  _218
REMARK   82  A    between atoms: _218  and  _219
REMARK   83  A    between atoms: _218  and  _221
REMARK   84  A    between atoms: _221  and  _222
REMARK   85  A    between atoms: _222  and  _223
REMARK   86  A    between atoms: _225  and  _227
REMARK   87  A    between atoms: _227  and  _228
REMARK   88  A    between atoms: _227  and  _230
REMARK   89  A    between atoms: _230  and  _231
REMARK   90  A    between atoms: _241  and  _243
REMARK   91  A    between atoms: _243  and  _244
REMARK   92  A    between atoms: _243  and  _246
REMARK   93  A    between atoms: _246  and  _247
REMARK   94  A    between atoms: _250  and  _252
REMARK   95  A    between atoms: _252  and  _253
REMARK   96  A    between atoms: _252  and  _255
REMARK   97  A    between atoms: _255  and  _256
REMARK   98  A    between atoms: _256  and  _257
REMARK   99  A    between atoms: _260  and  _262
REMARK  100  A    between atoms: _262  and  _263
REMARK  101  A    between atoms: _262  and  _265
REMARK  102  A    between atoms: _265  and  _266
REMARK  103  A    between atoms: _271  and  _273
REMARK  104  A    between atoms: _273  and  _274
REMARK  105  A    between atoms: _276  and  _278
REMARK  106  A    between atoms: _278  and  _279
REMARK  107  A    between atoms: _282  and  _284
REMARK  108  A    between atoms: _284  and  _285
REMARK  109  A    between atoms: _288  and  _290
REMARK  110  A    between atoms: _290  and  _291
REMARK  111  A    between atoms: _290  and  _293
REMARK  112  A    between atoms: _293  and  _294
REMARK  113  A    between atoms: _304  and  _306
REMARK  114  A    between atoms: _306  and  _307
REMARK  115  A    between atoms: _306  and  _309
REMARK  116  A    between atoms: _309  and  _310
REMARK  117  A    between atoms: _312  and  _314
REMARK  118  A    between atoms: _314  and  _315
REMARK  119  A    between atoms: _314  and  _317
REMARK  120  A    between atoms: _317  and  _318
REMARK  121  A    between atoms: _323  and  _325
REMARK  122  A    between atoms: _325  and  _326
REMARK  123  A    between atoms: _325  and  _328
REMARK  124  A    between atoms: _328  and  _329
REMARK  125  A    between atoms: _335  and  _337
REMARK  126  A    between atoms: _337  and  _338
REMARK  127  A    between atoms: _337  and  _340
REMARK  128  A    between atoms: _340  and  _341
REMARK  129  A    between atoms: _341  and  _342
REMARK  130  A    between atoms: _345  and  _347
REMARK  131  A    between atoms: _347  and  _348
REMARK  132  A    between atoms: _347  and  _350
REMARK  133  A    between atoms: _350  and  _351
REMARK  134  A    between atoms: _361  and  _363
REMARK  135  A    between atoms: _363  and  _364
REMARK  136  A    between atoms: _367  and  _369
REMARK  137  A    between atoms: _369  and  _370
REMARK  138  A    between atoms: _369  and  _372
REMARK  139  A    between atoms: _372  and  _373
REMARK  140  A    between atoms: _373  and  _374
REMARK  141  A    between atoms: _377  and  _379
REMARK  142  A    between atoms: _379  and  _380
REMARK  143  A    between atoms: _379  and  _382
REMARK  144  A    between atoms: _382  and  _383
REMARK  145  A    between atoms: _383  and  _384
REMARK  146  A    between atoms: _384  and  _385
REMARK  147  A    between atoms: _385  and  _386
REMARK  148  A    between atoms: _390  and  _392
REMARK  149  A    between atoms: _392  and  _393
REMARK  150  A    between atoms: _392  and  _395
REMARK  151  A    between atoms: _395  and  _396
REMARK                            x       y       z     vdW  Elec       q    Type
REMARK                         _______ _______ _______ _____ _____    ______ ____
ROOT
ATOM      1  O   HOH     1       1.107   1.047   7.277  0.00  0.00    +0.000 OA
ENDROOT
TORSDOF 0
REMARK  Name = ../refined-set-2016/2j75/2j75_pocket.pdb
REMARK  151 active torsions:
REMARK  status: ('A' for Active; 'I' for Inactive)
REMARK    1  A    between atoms: _1  and  _3
REMARK    2  A    between atoms: _3  and  _4
REMARK    3  A    between atoms: _7  and  _9
REMARK    4  A    between atoms: _9  and  _10
REMARK    5  A    between atoms: _9  and  _12
REMARK    6  A    between atoms: _12  and  _13
REMARK    7  A    between atoms: _16  and  _18
REMARK    8  A    between atoms: _18  and  _19
REMARK    9  A    between atoms: _22  and  _24
REMARK   10  A    between atoms: _24  and  _25
REMARK   11  A    between atoms: _24  and  _27
REMARK   12  A    between atoms: _27  and  _28
REMARK   13  A    between atoms: _30  and  _32
REMARK   14  A    between atoms: _32  and  _33
REMARK   15  A    between atoms: _32  and  _35
REMARK   16  A    between atoms: _35  and  _36
REMARK   17  A    between atoms: _36  and  _37
REMARK   18  A    between atoms: _42  and  _44
REMARK   19  A    between atoms: _44  and  _45
REMARK   20  A    between atoms: _44  and  _47
REMARK   21  A    between atoms: _47  and  _48
REMARK   22  A    between atoms: _48  and  _49
REMARK   23  A    between atoms: _49  and  _50
REMARK   24  A    between atoms: _59  and  _61
REMARK   25  A    between atoms: _61  and  _62
REMARK   26  A    between atoms: _61  and  _64
REMARK   27  A    between atoms: _64  and  _65
REMARK   28  A    between atoms: _68  and  _70
REMARK   29  A    between atoms: _70  and  _71
REMARK   30  A    between atoms: _70  and  _73
REMARK   31  A    between atoms: _73  and  _74
REMARK   32  A    between atoms: _79  and  _81
REMARK   33  A    between atoms: _81  and  _82
REMARK   34  A    between atoms: _81  and  _84
REMARK   35  A    between atoms: _84  and  _85
REMARK   36  A    between atoms: _95  and  _97
REMARK   37  A    between atoms: _97  and  _98
REMARK   38  A    between atoms: _97  and  _100
REMARK   39  A    between atoms: _100  and  _101
REMARK   40  A    between atoms: _106  and  _108
REMARK   41  A    between atoms: _108  and  _109
REMARK   42  A    between atoms: _108  and  _111
REMARK   43  A    between atoms: _111  and  _112
REMARK   44  A    between atoms: _112  and  _113
REMARK   45  A    between atoms: _116  and  _118
REMARK   46  A    between atoms: _118  and  _119
REMARK   47  A    between atoms: _118  and  _121
REMARK   48  A    between atoms: _124  and  _126
REMARK   49  A    between atoms: _126  and  _127
REMARK   50  A    between atoms: _126  and  _129
REMARK   51  A    between atoms: _129  and  _130
REMARK   52  A    between atoms: _135  and  _137
REMARK   53  A    between atoms: _137  and  _138
REMARK   54  A    between atoms: _137  and  _140
REMARK   55  A    between atoms: _143  and  _145
REMARK   56  A    between atoms: _145  and  _146
REMARK   57  A    between atoms: _145  and  _148
REMARK   58  A    between atoms: _148  and  _149
REMARK   59  A    between atoms: _155  and  _157
REMARK   60  A    between atoms: _157  and  _158
REMARK   61  A    between atoms: _157  and  _160
REMARK   62  A    between atoms: _160  and  _161
REMARK   63  A    between atoms: _166  and  _168
REMARK   64  A    between atoms: _168  and  _169
REMARK   65  A    between atoms: _168  and  _171
REMARK   66  A    between atoms: _171  and  _172
REMARK   67  A    between atoms: _177  and  _179
REMARK   68  A    between atoms: _179  and  _180
REMARK   69  A    between atoms: _179  and  _182
REMARK   70  A    between atoms: _182  and  _183
REMARK   71  A    between atoms: _188  and  _190
REMARK   72  A    between atoms: _190  and  _191
REMARK   73  A    between atoms: _190  and  _193
REMARK   74  A    between atoms: _193  and  _194
REMARK   75  A    between atoms: _199  and  _200
REMARK   76  A    between atoms: _202  and  _204
REMARK   77  A    between atoms: _204  and  _205
REMARK   78  A    between atoms: _204  and  _207
REMARK   79  A    between atoms: _207  and  _208
REMARK   80  A    between atoms: _213  and  _214
REMARK   81  A    between atoms: _216  and  _218
REMARK   82  A    between atoms: _218  and  _219
REMARK   83  A    between atoms: _218  and  _221
REMARK   84  A    between atoms: _221  and  _222
REMARK   85  A    between atoms: _222  and  _223
REMARK   86  A    between atoms: _225  and  _227
REMARK   87  A    between atoms: _227  and  _228
REMARK   88  A    between atoms: _227  and  _230
REMARK   89  A    between atoms: _230  and  _231
REMARK   90  A    between atoms: _241  and  _243
REMARK   91  A    between atoms: _243  and  _244
REMARK   92  A    between atoms: _243  and  _246
REMARK   93  A    between atoms: _246  and  _247
REMARK   94  A    between atoms: _250  and  _252
REMARK   95  A    between atoms: _252  and  _253
REMARK   96  A    between atoms: _252  and  _255
REMARK   97  A    between atoms: _255  and  _256
REMARK   98  A    between atoms: _256  and  _257
REMARK   99  A    between atoms: _260  and  _262
REMARK  100  A    between atoms: _262  and  _263
REMARK  101  A    between atoms: _262  and  _265
REMARK  102  A    between atoms: _265  and  _266
REMARK  103  A    between atoms: _271  and  _273
REMARK  104  A    between atoms: _273  and  _274
REMARK  105  A    between atoms: _276  and  _278
REMARK  106  A    between atoms: _278  and  _279
REMARK  107  A    between atoms: _282  and  _284
REMARK  108  A    between atoms: _284  and  _285
REMARK  109  A    between atoms: _288  and  _290
REMARK  110  A    between atoms: _290  and  _291
REMARK  111  A    between atoms: _290  and  _293
REMARK  112  A    between atoms: _293  and  _294
REMARK  113  A    between atoms: _304  and  _306
REMARK  114  A    between atoms: _306  and  _307
REMARK  115  A    between atoms: _306  and  _309
REMARK  116  A    between atoms: _309  and  _310
REMARK  117  A    between atoms: _312  and  _314
REMARK  118  A    between atoms: _314  and  _315
REMARK  119  A    between atoms: _314  and  _317
REMARK  120  A    between atoms: _317  and  _318
REMARK  121  A    between atoms: _323  and  _325
REMARK  122  A    between atoms: _325  and  _326
REMARK  123  A    between atoms: _325  and  _328
REMARK  124  A    between atoms: _328  and  _329
REMARK  125  A    between atoms: _335  and  _337
REMARK  126  A    between atoms: _337  and  _338
REMARK  127  A    between atoms: _337  and  _340
REMARK  128  A    between atoms: _340  and  _341
REMARK  129  A    between atoms: _341  and  _342
REMARK  130  A    between atoms: _345  and  _347
REMARK  131  A    between atoms: _347  and  _348
REMARK  132  A    between atoms: _347  and  _350
REMARK  133  A    between atoms: _350  and  _351
REMARK  134  A    between atoms: _361  and  _363
REMARK  135  A    between atoms: _363  and  _364
REMARK  136  A    between atoms: _367  and  _369
REMARK  137  A    between atoms: _369  and  _370
REMARK  138  A    between atoms: _369  and  _372
REMARK  139  A    between atoms: _372  and  _373
REMARK  140  A    between atoms: _373  and  _374
REMARK  141  A    between atoms: _377  and  _379
REMARK  142  A    between atoms: _379  and  _380
REMARK  143  A    between atoms: _379  and  _382
REMARK  144  A    between atoms: _382  and  _383
REMARK  145  A    between atoms: _383  and  _384
REMARK  146  A    between atoms: _384  and  _385
REMARK  147  A    between atoms: _385  and  _386
REMARK  148  A    between atoms: _390  and  _392
REMARK  149  A    between atoms: _392  and  _393
REMARK  150  A    between atoms: _392  and  _395
REMARK  151  A    between atoms: _395  and  _396
REMARK                            x       y       z     vdW  Elec       q    Type
REMARK                         _______ _______ _______ _____ _____    ______ ____
ROOT
ATOM      1  O   HOH     1       1.818  18.914   8.256  0.00  0.00    +0.000 OA
ENDROOT
TORSDOF 0
REMARK  Name = ../refined-set-2016/2j75/2j75_pocket.pdb
REMARK  151 active torsions:
REMARK  status: ('A' for Active; 'I' for Inactive)
REMARK    1  A    between atoms: _1  and  _3
REMARK    2  A    between atoms: _3  and  _4
REMARK    3  A    between atoms: _7  and  _9
REMARK    4  A    between atoms: _9  and  _10
REMARK    5  A    between atoms: _9  and  _12
REMARK    6  A    between atoms: _12  and  _13
REMARK    7  A    between atoms: _16  and  _18
REMARK    8  A    between atoms: _18  and  _19
REMARK    9  A    between atoms: _22  and  _24
REMARK   10  A    between atoms: _24  and  _25
REMARK   11  A    between atoms: _24  and  _27
REMARK   12  A    between atoms: _27  and  _28
REMARK   13  A    between atoms: _30  and  _32
REMARK   14  A    between atoms: _32  and  _33
REMARK   15  A    between atoms: _32  and  _35
REMARK   16  A    between atoms: _35  and  _36
REMARK   17  A    between atoms: _36  and  _37
REMARK   18  A    between atoms: _42  and  _44
REMARK   19  A    between atoms: _44  and  _45
REMARK   20  A    between atoms: _44  and  _47
REMARK   21  A    between atoms: _47  and  _48
REMARK   22  A    between atoms: _48  and  _49
REMARK   23  A    between atoms: _49  and  _50
REMARK   24  A    between atoms: _59  and  _61
REMARK   25  A    between atoms: _61  and  _62
REMARK   26  A    between atoms: _61  and  _64
REMARK   27  A    between atoms: _64  and  _65
REMARK   28  A    between atoms: _68  and  _70
REMARK   29  A    between atoms: _70  and  _71
REMARK   30  A    between atoms: _70  and  _73
REMARK   31  A    between atoms: _73  and  _74
REMARK   32  A    between atoms: _79  and  _81
REMARK   33  A    between atoms: _81  and  _82
REMARK   34  A    between atoms: _81  and  _84
REMARK   35  A    between atoms: _84  and  _85
REMARK   36  A    between atoms: _95  and  _97
REMARK   37  A    between atoms: _97  and  _98
REMARK   38  A    between atoms: _97  and  _100
REMARK   39  A    between atoms: _100  and  _101
REMARK   40  A    between atoms: _106  and  _108
REMARK   41  A    between atoms: _108  and  _109
REMARK   42  A    between atoms: _108  and  _111
REMARK   43  A    between atoms: _111  and  _112
REMARK   44  A    between atoms: _112  and  _113
REMARK   45  A    between atoms: _116  and  _118
REMARK   46  A    between atoms: _118  and  _119
REMARK   47  A    between atoms: _118  and  _121
REMARK   48  A    between atoms: _124  and  _126
REMARK   49  A    between atoms: _126  and  _127
REMARK   50  A    between atoms: _126  and  _129
REMARK   51  A    between atoms: _129  and  _130
REMARK   52  A    between atoms: _135  and  _137
REMARK   53  A    between atoms: _137  and  _138
REMARK   54  A    between atoms: _137  and  _140
REMARK   55  A    between atoms: _143  and  _145
REMARK   56  A    between atoms: _145  and  _146
REMARK   57  A    between atoms: _145  and  _148
REMARK   58  A    between atoms: _148  and  _149
REMARK   59  A    between atoms: _155  and  _157
REMARK   60  A    between atoms: _157  and  _158
REMARK   61  A    between atoms: _157  and  _160
REMARK   62  A    between atoms: _160  and  _161
REMARK   63  A    between atoms: _166  and  _168
REMARK   64  A    between atoms: _168  and  _169
REMARK   65  A    between atoms: _168  and  _171
REMARK   66  A    between atoms: _171  and  _172
REMARK   67  A    between atoms: _177  and  _179
REMARK   68  A    between atoms: _179  and  _180
REMARK   69  A    between atoms: _179  and  _182
REMARK   70  A    between atoms: _182  and  _183
REMARK   71  A    between atoms: _188  and  _190
REMARK   72  A    between atoms: _190  and  _191
REMARK   73  A    between atoms: _190  and  _193
REMARK   74  A    between atoms: _193  and  _194
REMARK   75  A    between atoms: _199  and  _200
REMARK   76  A    between atoms: _202  and  _204
REMARK   77  A    between atoms: _204  and  _205
REMARK   78  A    between atoms: _204  and  _207
REMARK   79  A    between atoms: _207  and  _208
REMARK   80  A    between atoms: _213  and  _214
REMARK   81  A    between atoms: _216  and  _218
REMARK   82  A    between atoms: _218  and  _219
REMARK   83  A    between atoms: _218  and  _221
REMARK   84  A    between atoms: _221  and  _222
REMARK   85  A    between atoms: _222  and  _223
REMARK   86  A    between atoms: _225  and  _227
REMARK   87  A    between atoms: _227  and  _228
REMARK   88  A    between atoms: _227  and  _230
REMARK   89  A    between atoms: _230  and  _231
REMARK   90  A    between atoms: _241  and  _243
REMARK   91  A    between atoms: _243  and  _244
REMARK   92  A    between atoms: _243  and  _246
REMARK   93  A    between atoms: _246  and  _247
REMARK   94  A    between atoms: _250  and  _252
REMARK   95  A    between atoms: _252  and  _253
REMARK   96  A    between atoms: _252  and  _255
REMARK   97  A    between atoms: _255  and  _256
REMARK   98  A    between atoms: _256  and  _257
REMARK   99  A    between atoms: _260  and  _262
REMARK  100  A    between atoms: _262  and  _263
REMARK  101  A    between atoms: _262  and  _265
REMARK  102  A    between atoms: _265  and  _266
REMARK  103  A    between atoms: _271  and  _273
REMARK  104  A    between atoms: _273  and  _274
REMARK  105  A    between atoms: _276  and  _278
REMARK  106  A    between atoms: _278  and  _279
REMARK  107  A    between atoms: _282  and  _284
REMARK  108  A    between atoms: _284  and  _285
REMARK  109  A    between atoms: _288  and  _290
REMARK  110  A    between atoms: _290  and  _291
REMARK  111  A    between atoms: _290  and  _293
REMARK  112  A    between atoms: _293  and  _294
REMARK  113  A    between atoms: _304  and  _306
REMARK  114  A    between atoms: _306  and  _307
REMARK  115  A    between atoms: _306  and  _309
REMARK  116  A    between atoms: _309  and  _310
REMARK  117  A    between atoms: _312  and  _314
REMARK  118  A    between atoms: _314  and  _315
REMARK  119  A    between atoms: _314  and  _317
REMARK  120  A    between atoms: _317  and  _318
REMARK  121  A    between atoms: _323  and  _325
REMARK  122  A    between atoms: _325  and  _326
REMARK  123  A    between atoms: _325  and  _328
REMARK  124  A    between atoms: _328  and  _329
REMARK  125  A    between atoms: _335  and  _337
REMARK  126  A    between atoms: _337  and  _338
REMARK  127  A    between atoms: _337  and  _340
REMARK  128  A    between atoms: _340  and  _341
REMARK  129  A    between atoms: _341  and  _342
REMARK  130  A    between atoms: _345  and  _347
REMARK  131  A    between atoms: _347  and  _348
REMARK  132  A    between atoms: _347  and  _350
REMARK  133  A    between atoms: _350  and  _351
REMARK  134  A    between atoms: _361  and  _363
REMARK  135  A    between atoms: _363  and  _364
REMARK  136  A    between atoms: _367  and  _369
REMARK  137  A    between atoms: _369  and  _370
REMARK  138  A    between atoms: _369  and  _372
REMARK  139  A    between atoms: _372  and  _373
REMARK  140  A    between atoms: _373  and  _374
REMARK  141  A    between atoms: _377  and  _379
REMARK  142  A    between atoms: _379  and  _380
REMARK  143  A    between atoms: _379  and  _382
REMARK  144  A    between atoms: _382  and  _383
REMARK  145  A    between atoms: _383  and  _384
REMARK  146  A    between atoms: _384  and  _385
REMARK  147  A    between atoms: _385  and  _386
REMARK  148  A    between atoms: _390  and  _392
REMARK  149  A    between atoms: _392  and  _393
REMARK  150  A    between atoms: _392  and  _395
REMARK  151  A    between atoms: _395  and  _396
REMARK                            x       y       z     vdW  Elec       q    Type
REMARK                         _______ _______ _______ _____ _____    ______ ____
ROOT
ATOM      1  O   HOH     1       5.761  15.118   3.946  0.00  0.00    +0.000 OA
ENDROOT
TORSDOF 0
REMARK  Name = ../refined-set-2016/2j75/2j75_pocket.pdb
REMARK  151 active torsions:
REMARK  status: ('A' for Active; 'I' for Inactive)
REMARK    1  A    between atoms: _1  and  _3
REMARK    2  A    between atoms: _3  and  _4
REMARK    3  A    between atoms: _7  and  _9
REMARK    4  A    between atoms: _9  and  _10
REMARK    5  A    between atoms: _9  and  _12
REMARK    6  A    between atoms: _12  and  _13
REMARK    7  A    between atoms: _16  and  _18
REMARK    8  A    between atoms: _18  and  _19
REMARK    9  A    between atoms: _22  and  _24
REMARK   10  A    between atoms: _24  and  _25
REMARK   11  A    between atoms: _24  and  _27
REMARK   12  A    between atoms: _27  and  _28
REMARK   13  A    between atoms: _30  and  _32
REMARK   14  A    between atoms: _32  and  _33
REMARK   15  A    between atoms: _32  and  _35
REMARK   16  A    between atoms: _35  and  _36
REMARK   17  A    between atoms: _36  and  _37
REMARK   18  A    between atoms: _42  and  _44
REMARK   19  A    between atoms: _44  and  _45
REMARK   20  A    between atoms: _44  and  _47
REMARK   21  A    between atoms: _47  and  _48
REMARK   22  A    between atoms: _48  and  _49
REMARK   23  A    between atoms: _49  and  _50
REMARK   24  A    between atoms: _59  and  _61
REMARK   25  A    between atoms: _61  and  _62
REMARK   26  A    between atoms: _61  and  _64
REMARK   27  A    between atoms: _64  and  _65
REMARK   28  A    between atoms: _68  and  _70
REMARK   29  A    between atoms: _70  and  _71
REMARK   30  A    between atoms: _70  and  _73
REMARK   31  A    between atoms: _73  and  _74
REMARK   32  A    between atoms: _79  and  _81
REMARK   33  A    between atoms: _81  and  _82
REMARK   34  A    between atoms: _81  and  _84
REMARK   35  A    between atoms: _84  and  _85
REMARK   36  A    between atoms: _95  and  _97
REMARK   37  A    between atoms: _97  and  _98
REMARK   38  A    between atoms: _97  and  _100
REMARK   39  A    between atoms: _100  and  _101
REMARK   40  A    between atoms: _106  and  _108
REMARK   41  A    between atoms: _108  and  _109
REMARK   42  A    between atoms: _108  and  _111
REMARK   43  A    between atoms: _111  and  _112
REMARK   44  A    between atoms: _112  and  _113
REMARK   45  A    between atoms: _116  and  _118
REMARK   46  A    between atoms: _118  and  _119
REMARK   47  A    between atoms: _118  and  _121
REMARK   48  A    between atoms: _124  and  _126
REMARK   49  A    between atoms: _126  and  _127
REMARK   50  A    between atoms: _126  and  _129
REMARK   51  A    between atoms: _129  and  _130
REMARK   52  A    between atoms: _135  and  _137
REMARK   53  A    between atoms: _137  and  _138
REMARK   54  A    between atoms: _137  and  _140
REMARK   55  A    between atoms: _143  and  _145
REMARK   56  A    between atoms: _145  and  _146
REMARK   57  A    between atoms: _145  and  _148
REMARK   58  A    between atoms: _148  and  _149
REMARK   59  A    between atoms: _155  and  _157
REMARK   60  A    between atoms: _157  and  _158
REMARK   61  A    between atoms: _157  and  _160
REMARK   62  A    between atoms: _160  and  _161
REMARK   63  A    between atoms: _166  and  _168
REMARK   64  A    between atoms: _168  and  _169
REMARK   65  A    between atoms: _168  and  _171
REMARK   66  A    between atoms: _171  and  _172
REMARK   67  A    between atoms: _177  and  _179
REMARK   68  A    between atoms: _179  and  _180
REMARK   69  A    between atoms: _179  and  _182
REMARK   70  A    between atoms: _182  and  _183
REMARK   71  A    between atoms: _188  and  _190
REMARK   72  A    between atoms: _190  and  _191
REMARK   73  A    between atoms: _190  and  _193
REMARK   74  A    between atoms: _193  and  _194
REMARK   75  A    between atoms: _199  and  _200
REMARK   76  A    between atoms: _202  and  _204
REMARK   77  A    between atoms: _204  and  _205
REMARK   78  A    between atoms: _204  and  _207
REMARK   79  A    between atoms: _207  and  _208
REMARK   80  A    between atoms: _213  and  _214
REMARK   81  A    between atoms: _216  and  _218
REMARK   82  A    between atoms: _218  and  _219
REMARK   83  A    between atoms: _218  and  _221
REMARK   84  A    between atoms: _221  and  _222
REMARK   85  A    between atoms: _222  and  _223
REMARK   86  A    between atoms: _225  and  _227
REMARK   87  A    between atoms: _227  and  _228
REMARK   88  A    between atoms: _227  and  _230
REMARK   89  A    between atoms: _230  and  _231
REMARK   90  A    between atoms: _241  and  _243
REMARK   91  A    between atoms: _243  and  _244
REMARK   92  A    between atoms: _243  and  _246
REMARK   93  A    between atoms: _246  and  _247
REMARK   94  A    between atoms: _250  and  _252
REMARK   95  A    between atoms: _252  and  _253
REMARK   96  A    between atoms: _252  and  _255
REMARK   97  A    between atoms: _255  and  _256
REMARK   98  A    between atoms: _256  and  _257
REMARK   99  A    between atoms: _260  and  _262
REMARK  100  A    between atoms: _262  and  _263
REMARK  101  A    between atoms: _262  and  _265
REMARK  102  A    between atoms: _265  and  _266
REMARK  103  A    between atoms: _271  and  _273
REMARK  104  A    between atoms: _273  and  _274
REMARK  105  A    between atoms: _276  and  _278
REMARK  106  A    between atoms: _278  and  _279
REMARK  107  A    between atoms: _282  and  _284
REMARK  108  A    between atoms: _284  and  _285
REMARK  109  A    between atoms: _288  and  _290
REMARK  110  A    between atoms: _290  and  _291
REMARK  111  A    between atoms: _290  and  _293
REMARK  112  A    between atoms: _293  and  _294
REMARK  113  A    between atoms: _304  and  _306
REMARK  114  A    between atoms: _306  and  _307
REMARK  115  A    between atoms: _306  and  _309
REMARK  116  A    between atoms: _309  and  _310
REMARK  117  A    between atoms: _312  and  _314
REMARK  118  A    between atoms: _314  and  _315
REMARK  119  A    between atoms: _314  and  _317
REMARK  120  A    between atoms: _317  and  _318
REMARK  121  A    between atoms: _323  and  _325
REMARK  122  A    between atoms: _325  and  _326
REMARK  123  A    between atoms: _325  and  _328
REMARK  124  A    between atoms: _328  and  _329
REMARK  125  A    between atoms: _335  and  _337
REMARK  126  A    between atoms: _337  and  _338
REMARK  127  A    between atoms: _337  and  _340
REMARK  128  A    between atoms: _340  and  _341
REMARK  129  A    between atoms: _341  and  _342
REMARK  130  A    between atoms: _345  and  _347
REMARK  131  A    between atoms: _347  and  _348
REMARK  132  A    between atoms: _347  and  _350
REMARK  133  A    between atoms: _350  and  _351
REMARK  134  A    between atoms: _361  and  _363
REMARK  135  A    between atoms: _363  and  _364
REMARK  136  A    between atoms: _367  and  _369
REMARK  137  A    between atoms: _369  and  _370
REMARK  138  A    between atoms: _369  and  _372
REMARK  139  A    between atoms: _372  and  _373
REMARK  140  A    between atoms: _373  and  _374
REMARK  141  A    between atoms: _377  and  _379
REMARK  142  A    between atoms: _379  and  _380
REMARK  143  A    between atoms: _379  and  _382
REMARK  144  A    between atoms: _382  and  _383
REMARK  145  A    between atoms: _383  and  _384
REMARK  146  A    between atoms: _384  and  _385
REMARK  147  A    between atoms: _385  and  _386
REMARK  148  A    between atoms: _390  and  _392
REMARK  149  A    between atoms: _392  and  _393
REMARK  150  A    between atoms: _392  and  _395
REMARK  151  A    between atoms: _395  and  _396
REMARK                            x       y       z     vdW  Elec       q    Type
REMARK                         _______ _______ _______ _____ _____    ______ ____
ROOT
ATOM      1  O   HOH     1       0.393   8.268  12.331  0.00  0.00    +0.000 OA
ENDROOT
TORSDOF 0
REMARK  Name = ../refined-set-2016/2j75/2j75_pocket.pdb
REMARK  151 active torsions:
REMARK  status: ('A' for Active; 'I' for Inactive)
REMARK    1  A    between atoms: _1  and  _3
REMARK    2  A    between atoms: _3  and  _4
REMARK    3  A    between atoms: _7  and  _9
REMARK    4  A    between atoms: _9  and  _10
REMARK    5  A    between atoms: _9  and  _12
REMARK    6  A    between atoms: _12  and  _13
REMARK    7  A    between atoms: _16  and  _18
REMARK    8  A    between atoms: _18  and  _19
REMARK    9  A    between atoms: _22  and  _24
REMARK   10  A    between atoms: _24  and  _25
REMARK   11  A    between atoms: _24  and  _27
REMARK   12  A    between atoms: _27  and  _28
REMARK   13  A    between atoms: _30  and  _32
REMARK   14  A    between atoms: _32  and  _33
REMARK   15  A    between atoms: _32  and  _35
REMARK   16  A    between atoms: _35  and  _36
REMARK   17  A    between atoms: _36  and  _37
REMARK   18  A    between atoms: _42  and  _44
REMARK   19  A    between atoms: _44  and  _45
REMARK   20  A    between atoms: _44  and  _47
REMARK   21  A    between atoms: _47  and  _48
REMARK   22  A    between atoms: _48  and  _49
REMARK   23  A    between atoms: _49  and  _50
REMARK   24  A    between atoms: _59  and  _61
REMARK   25  A    between atoms: _61  and  _62
REMARK   26  A    between atoms: _61  and  _64
REMARK   27  A    between atoms: _64  and  _65
REMARK   28  A    between atoms: _68  and  _70
REMARK   29  A    between atoms: _70  and  _71
REMARK   30  A    between atoms: _70  and  _73
REMARK   31  A    between atoms: _73  and  _74
REMARK   32  A    between atoms: _79  and  _81
REMARK   33  A    between atoms: _81  and  _82
REMARK   34  A    between atoms: _81  and  _84
REMARK   35  A    between atoms: _84  and  _85
REMARK   36  A    between atoms: _95  and  _97
REMARK   37  A    between atoms: _97  and  _98
REMARK   38  A    between atoms: _97  and  _100
REMARK   39  A    between atoms: _100  and  _101
REMARK   40  A    between atoms: _106  and  _108
REMARK   41  A    between atoms: _108  and  _109
REMARK   42  A    between atoms: _108  and  _111
REMARK   43  A    between atoms: _111  and  _112
REMARK   44  A    between atoms: _112  and  _113
REMARK   45  A    between atoms: _116  and  _118
REMARK   46  A    between atoms: _118  and  _119
REMARK   47  A    between atoms: _118  and  _121
REMARK   48  A    between atoms: _124  and  _126
REMARK   49  A    between atoms: _126  and  _127
REMARK   50  A    between atoms: _126  and  _129
REMARK   51  A    between atoms: _129  and  _130
REMARK   52  A    between atoms: _135  and  _137
REMARK   53  A    between atoms: _137  and  _138
REMARK   54  A    between atoms: _137  and  _140
REMARK   55  A    between atoms: _143  and  _145
REMARK   56  A    between atoms: _145  and  _146
REMARK   57  A    between atoms: _145  and  _148
REMARK   58  A    between atoms: _148  and  _149
REMARK   59  A    between atoms: _155  and  _157
REMARK   60  A    between atoms: _157  and  _158
REMARK   61  A    between atoms: _157  and  _160
REMARK   62  A    between atoms: _160  and  _161
REMARK   63  A    between atoms: _166  and  _168
REMARK   64  A    between atoms: _168  and  _169
REMARK   65  A    between atoms: _168  and  _171
REMARK   66  A    between atoms: _171  and  _172
REMARK   67  A    between atoms: _177  and  _179
REMARK   68  A    between atoms: _179  and  _180
REMARK   69  A    between atoms: _179  and  _182
REMARK   70  A    between atoms: _182  and  _183
REMARK   71  A    between atoms: _188  and  _190
REMARK   72  A    between atoms: _190  and  _191
REMARK   73  A    between atoms: _190  and  _193
REMARK   74  A    between atoms: _193  and  _194
REMARK   75  A    between atoms: _199  and  _200
REMARK   76  A    between atoms: _202  and  _204
REMARK   77  A    between atoms: _204  and  _205
REMARK   78  A    between atoms: _204  and  _207
REMARK   79  A    between atoms: _207  and  _208
REMARK   80  A    between atoms: _213  and  _214
REMARK   81  A    between atoms: _216  and  _218
REMARK   82  A    between atoms: _218  and  _219
REMARK   83  A    between atoms: _218  and  _221
REMARK   84  A    between atoms: _221  and  _222
REMARK   85  A    between atoms: _222  and  _223
REMARK   86  A    between atoms: _225  and  _227
REMARK   87  A    between atoms: _227  and  _228
REMARK   88  A    between atoms: _227  and  _230
REMARK   89  A    between atoms: _230  and  _231
REMARK   90  A    between atoms: _241  and  _243
REMARK   91  A    between atoms: _243  and  _244
REMARK   92  A    between atoms: _243  and  _246
REMARK   93  A    between atoms: _246  and  _247
REMARK   94  A    between atoms: _250  and  _252
REMARK   95  A    between atoms: _252  and  _253
REMARK   96  A    between atoms: _252  and  _255
REMARK   97  A    between atoms: _255  and  _256
REMARK   98  A    between atoms: _256  and  _257
REMARK   99  A    between atoms: _260  and  _262
REMARK  100  A    between atoms: _262  and  _263
REMARK  101  A    between atoms: _262  and  _265
REMARK  102  A    between atoms: _265  and  _266
REMARK  103  A    between atoms: _271  and  _273
REMARK  104  A    between atoms: _273  and  _274
REMARK  105  A    between atoms: _276  and  _278
REMARK  106  A    between atoms: _278  and  _279
REMARK  107  A    between atoms: _282  and  _284
REMARK  108  A    between atoms: _284  and  _285
REMARK  109  A    between atoms: _288  and  _290
REMARK  110  A    between atoms: _290  and  _291
REMARK  111  A    between atoms: _290  and  _293
REMARK  112  A    between atoms: _293  and  _294
REMARK  113  A    between atoms: _304  and  _306
REMARK  114  A    between atoms: _306  and  _307
REMARK  115  A    between atoms: _306  and  _309
REMARK  116  A    between atoms: _309  and  _310
REMARK  117  A    between atoms: _312  and  _314
REMARK  118  A    between atoms: _314  and  _315
REMARK  119  A    between atoms: _314  and  _317
REMARK  120  A    between atoms: _317  and  _318
REMARK  121  A    between atoms: _323  and  _325
REMARK  122  A    between atoms: _325  and  _326
REMARK  123  A    between atoms: _325  and  _328
REMARK  124  A    between atoms: _328  and  _329
REMARK  125  A    between atoms: _335  and  _337
REMARK  126  A    between atoms: _337  and  _338
REMARK  127  A    between atoms: _337  and  _340
REMARK  128  A    between atoms: _340  and  _341
REMARK  129  A    between atoms: _341  and  _342
REMARK  130  A    between atoms: _345  and  _347
REMARK  131  A    between atoms: _347  and  _348
REMARK  132  A    between atoms: _347  and  _350
REMARK  133  A    between atoms: _350  and  _351
REMARK  134  A    between atoms: _361  and  _363
REMARK  135  A    between atoms: _363  and  _364
REMARK  136  A    between atoms: _367  and  _369
REMARK  137  A    between atoms: _369  and  _370
REMARK  138  A    between atoms: _369  and  _372
REMARK  139  A    between atoms: _372  and  _373
REMARK  140  A    between atoms: _373  and  _374
REMARK  141  A    between atoms: _377  and  _379
REMARK  142  A    between atoms: _379  and  _380
REMARK  143  A    between atoms: _379  and  _382
REMARK  144  A    between atoms: _382  and  _383
REMARK  145  A    between atoms: _383  and  _384
REMARK  146  A    between atoms: _384  and  _385
REMARK  147  A    between atoms: _385  and  _386
REMARK  148  A    between atoms: _390  and  _392
REMARK  149  A    between atoms: _392  and  _393
REMARK  150  A    between atoms: _392  and  _395
REMARK  151  A    between atoms: _395  and  _396
REMARK                            x       y       z     vdW  Elec       q    Type
REMARK                         _______ _______ _______ _____ _____    ______ ____
ROOT
ATOM      1  O   HOH     1       1.780   3.631   6.501  0.00  0.00    +0.000 OA
ENDROOT
TORSDOF 0
REMARK  Name = ../refined-set-2016/2j75/2j75_pocket.pdb
REMARK  151 active torsions:
REMARK  status: ('A' for Active; 'I' for Inactive)
REMARK    1  A    between atoms: _1  and  _3
REMARK    2  A    between atoms: _3  and  _4
REMARK    3  A    between atoms: _7  and  _9
REMARK    4  A    between atoms: _9  and  _10
REMARK    5  A    between atoms: _9  and  _12
REMARK    6  A    between atoms: _12  and  _13
REMARK    7  A    between atoms: _16  and  _18
REMARK    8  A    between atoms: _18  and  _19
REMARK    9  A    between atoms: _22  and  _24
REMARK   10  A    between atoms: _24  and  _25
REMARK   11  A    between atoms: _24  and  _27
REMARK   12  A    between atoms: _27  and  _28
REMARK   13  A    between atoms: _30  and  _32
REMARK   14  A    between atoms: _32  and  _33
REMARK   15  A    between atoms: _32  and  _35
REMARK   16  A    between atoms: _35  and  _36
REMARK   17  A    between atoms: _36  and  _37
REMARK   18  A    between atoms: _42  and  _44
REMARK   19  A    between atoms: _44  and  _45
REMARK   20  A    between atoms: _44  and  _47
REMARK   21  A    between atoms: _47  and  _48
REMARK   22  A    between atoms: _48  and  _49
REMARK   23  A    between atoms: _49  and  _50
REMARK   24  A    between atoms: _59  and  _61
REMARK   25  A    between atoms: _61  and  _62
REMARK   26  A    between atoms: _61  and  _64
REMARK   27  A    between atoms: _64  and  _65
REMARK   28  A    between atoms: _68  and  _70
REMARK   29  A    between atoms: _70  and  _71
REMARK   30  A    between atoms: _70  and  _73
REMARK   31  A    between atoms: _73  and  _74
REMARK   32  A    between atoms: _79  and  _81
REMARK   33  A    between atoms: _81  and  _82
REMARK   34  A    between atoms: _81  and  _84
REMARK   35  A    between atoms: _84  and  _85
REMARK   36  A    between atoms: _95  and  _97
REMARK   37  A    between atoms: _97  and  _98
REMARK   38  A    between atoms: _97  and  _100
REMARK   39  A    between atoms: _100  and  _101
REMARK   40  A    between atoms: _106  and  _108
REMARK   41  A    between atoms: _108  and  _109
REMARK   42  A    between atoms: _108  and  _111
REMARK   43  A    between atoms: _111  and  _112
REMARK   44  A    between atoms: _112  and  _113
REMARK   45  A    between atoms: _116  and  _118
REMARK   46  A    between atoms: _118  and  _119
REMARK   47  A    between atoms: _118  and  _121
REMARK   48  A    between atoms: _124  and  _126
REMARK   49  A    between atoms: _126  and  _127
REMARK   50  A    between atoms: _126  and  _129
REMARK   51  A    between atoms: _129  and  _130
REMARK   52  A    between atoms: _135  and  _137
REMARK   53  A    between atoms: _137  and  _138
REMARK   54  A    between atoms: _137  and  _140
REMARK   55  A    between atoms: _143  and  _145
REMARK   56  A    between atoms: _145  and  _146
REMARK   57  A    between atoms: _145  and  _148
REMARK   58  A    between atoms: _148  and  _149
REMARK   59  A    between atoms: _155  and  _157
REMARK   60  A    between atoms: _157  and  _158
REMARK   61  A    between atoms: _157  and  _160
REMARK   62  A    between atoms: _160  and  _161
REMARK   63  A    between atoms: _166  and  _168
REMARK   64  A    between atoms: _168  and  _169
REMARK   65  A    between atoms: _168  and  _171
REMARK   66  A    between atoms: _171  and  _172
REMARK   67  A    between atoms: _177  and  _179
REMARK   68  A    between atoms: _179  and  _180
REMARK   69  A    between atoms: _179  and  _182
REMARK   70  A    between atoms: _182  and  _183
REMARK   71  A    between atoms: _188  and  _190
REMARK   72  A    between atoms: _190  and  _191
REMARK   73  A    between atoms: _190  and  _193
REMARK   74  A    between atoms: _193  and  _194
REMARK   75  A    between atoms: _199  and  _200
REMARK   76  A    between atoms: _202  and  _204
REMARK   77  A    between atoms: _204  and  _205
REMARK   78  A    between atoms: _204  and  _207
REMARK   79  A    between atoms: _207  and  _208
REMARK   80  A    between atoms: _213  and  _214
REMARK   81  A    between atoms: _216  and  _218
REMARK   82  A    between atoms: _218  and  _219
REMARK   83  A    between atoms: _218  and  _221
REMARK   84  A    between atoms: _221  and  _222
REMARK   85  A    between atoms: _222  and  _223
REMARK   86  A    between atoms: _225  and  _227
REMARK   87  A    between atoms: _227  and  _228
REMARK   88  A    between atoms: _227  and  _230
REMARK   89  A    between atoms: _230  and  _231
REMARK   90  A    between atoms: _241  and  _243
REMARK   91  A    between atoms: _243  and  _244
REMARK   92  A    between atoms: _243  and  _246
REMARK   93  A    between atoms: _246  and  _247
REMARK   94  A    between atoms: _250  and  _252
REMARK   95  A    between atoms: _252  and  _253
REMARK   96  A    between atoms: _252  and  _255
REMARK   97  A    between atoms: _255  and  _256
REMARK   98  A    between atoms: _256  and  _257
REMARK   99  A    between atoms: _260  and  _262
REMARK  100  A    between atoms: _262  and  _263
REMARK  101  A    between atoms: _262  and  _265
REMARK  102  A    between atoms: _265  and  _266
REMARK  103  A    between atoms: _271  and  _273
REMARK  104  A    between atoms: _273  and  _274
REMARK  105  A    between atoms: _276  and  _278
REMARK  106  A    between atoms: _278  and  _279
REMARK  107  A    between atoms: _282  and  _284
REMARK  108  A    between atoms: _284  and  _285
REMARK  109  A    between atoms: _288  and  _290
REMARK  110  A    between atoms: _290  and  _291
REMARK  111  A    between atoms: _290  and  _293
REMARK  112  A    between atoms: _293  and  _294
REMARK  113  A    between atoms: _304  and  _306
REMARK  114  A    between atoms: _306  and  _307
REMARK  115  A    between atoms: _306  and  _309
REMARK  116  A    between atoms: _309  and  _310
REMARK  117  A    between atoms: _312  and  _314
REMARK  118  A    between atoms: _314  and  _315
REMARK  119  A    between atoms: _314  and  _317
REMARK  120  A    between atoms: _317  and  _318
REMARK  121  A    between atoms: _323  and  _325
REMARK  122  A    between atoms: _325  and  _326
REMARK  123  A    between atoms: _325  and  _328
REMARK  124  A    between atoms: _328  and  _329
REMARK  125  A    between atoms: _335  and  _337
REMARK  126  A    between atoms: _337  and  _338
REMARK  127  A    between atoms: _337  and  _340
REMARK  128  A    between atoms: _340  and  _341
REMARK  129  A    between atoms: _341  and  _342
REMARK  130  A    between atoms: _345  and  _347
REMARK  131  A    between atoms: _347  and  _348
REMARK  132  A    between atoms: _347  and  _350
REMARK  133  A    between atoms: _350  and  _351
REMARK  134  A    between atoms: _361  and  _363
REMARK  135  A    between atoms: _363  and  _364
REMARK  136  A    between atoms: _367  and  _369
REMARK  137  A    between atoms: _369  and  _370
REMARK  138  A    between atoms: _369  and  _372
REMARK  139  A    between atoms: _372  and  _373
REMARK  140  A    between atoms: _373  and  _374
REMARK  141  A    between atoms: _377  and  _379
REMARK  142  A    between atoms: _379  and  _380
REMARK  143  A    between atoms: _379  and  _382
REMARK  144  A    between atoms: _382  and  _383
REMARK  145  A    between atoms: _383  and  _384
REMARK  146  A    between atoms: _384  and  _385
REMARK  147  A    between atoms: _385  and  _386
REMARK  148  A    between atoms: _390  and  _392
REMARK  149  A    between atoms: _392  and  _393
REMARK  150  A    between atoms: _392  and  _395
REMARK  151  A    between atoms: _395  and  _396
REMARK                            x       y       z     vdW  Elec       q    Type
REMARK                         _______ _______ _______ _____ _____    ______ ____
ROOT
ATOM      1  O   HOH     1      -5.164   7.633  17.221  0.00  0.00    +0.000 OA
ENDROOT
TORSDOF 0
REMARK  Name = ../refined-set-2016/2j75/2j75_pocket.pdb
REMARK  151 active torsions:
REMARK  status: ('A' for Active; 'I' for Inactive)
REMARK    1  A    between atoms: _1  and  _3
REMARK    2  A    between atoms: _3  and  _4
REMARK    3  A    between atoms: _7  and  _9
REMARK    4  A    between atoms: _9  and  _10
REMARK    5  A    between atoms: _9  and  _12
REMARK    6  A    between atoms: _12  and  _13
REMARK    7  A    between atoms: _16  and  _18
REMARK    8  A    between atoms: _18  and  _19
REMARK    9  A    between atoms: _22  and  _24
REMARK   10  A    between atoms: _24  and  _25
REMARK   11  A    between atoms: _24  and  _27
REMARK   12  A    between atoms: _27  and  _28
REMARK   13  A    between atoms: _30  and  _32
REMARK   14  A    between atoms: _32  and  _33
REMARK   15  A    between atoms: _32  and  _35
REMARK   16  A    between atoms: _35  and  _36
REMARK   17  A    between atoms: _36  and  _37
REMARK   18  A    between atoms: _42  and  _44
REMARK   19  A    between atoms: _44  and  _45
REMARK   20  A    between atoms: _44  and  _47
REMARK   21  A    between atoms: _47  and  _48
REMARK   22  A    between atoms: _48  and  _49
REMARK   23  A    between atoms: _49  and  _50
REMARK   24  A    between atoms: _59  and  _61
REMARK   25  A    between atoms: _61  and  _62
REMARK   26  A    between atoms: _61  and  _64
REMARK   27  A    between atoms: _64  and  _65
REMARK   28  A    between atoms: _68  and  _70
REMARK   29  A    between atoms: _70  and  _71
REMARK   30  A    between atoms: _70  and  _73
REMARK   31  A    between atoms: _73  and  _74
REMARK   32  A    between atoms: _79  and  _81
REMARK   33  A    between atoms: _81  and  _82
REMARK   34  A    between atoms: _81  and  _84
REMARK   35  A    between atoms: _84  and  _85
REMARK   36  A    between atoms: _95  and  _97
REMARK   37  A    between atoms: _97  and  _98
REMARK   38  A    between atoms: _97  and  _100
REMARK   39  A    between atoms: _100  and  _101
REMARK   40  A    between atoms: _106  and  _108
REMARK   41  A    between atoms: _108  and  _109
REMARK   42  A    between atoms: _108  and  _111
REMARK   43  A    between atoms: _111  and  _112
REMARK   44  A    between atoms: _112  and  _113
REMARK   45  A    between atoms: _116  and  _118
REMARK   46  A    between atoms: _118  and  _119
REMARK   47  A    between atoms: _118  and  _121
REMARK   48  A    between atoms: _124  and  _126
REMARK   49  A    between atoms: _126  and  _127
REMARK   50  A    between atoms: _126  and  _129
REMARK   51  A    between atoms: _129  and  _130
REMARK   52  A    between atoms: _135  and  _137
REMARK   53  A    between atoms: _137  and  _138
REMARK   54  A    between atoms: _137  and  _140
REMARK   55  A    between atoms: _143  and  _145
REMARK   56  A    between atoms: _145  and  _146
REMARK   57  A    between atoms: _145  and  _148
REMARK   58  A    between atoms: _148  and  _149
REMARK   59  A    between atoms: _155  and  _157
REMARK   60  A    between atoms: _157  and  _158
REMARK   61  A    between atoms: _157  and  _160
REMARK   62  A    between atoms: _160  and  _161
REMARK   63  A    between atoms: _166  and  _168
REMARK   64  A    between atoms: _168  and  _169
REMARK   65  A    between atoms: _168  and  _171
REMARK   66  A    between atoms: _171  and  _172
REMARK   67  A    between atoms: _177  and  _179
REMARK   68  A    between atoms: _179  and  _180
REMARK   69  A    between atoms: _179  and  _182
REMARK   70  A    between atoms: _182  and  _183
REMARK   71  A    between atoms: _188  and  _190
REMARK   72  A    between atoms: _190  and  _191
REMARK   73  A    between atoms: _190  and  _193
REMARK   74  A    between atoms: _193  and  _194
REMARK   75  A    between atoms: _199  and  _200
REMARK   76  A    between atoms: _202  and  _204
REMARK   77  A    between atoms: _204  and  _205
REMARK   78  A    between atoms: _204  and  _207
REMARK   79  A    between atoms: _207  and  _208
REMARK   80  A    between atoms: _213  and  _214
REMARK   81  A    between atoms: _216  and  _218
REMARK   82  A    between atoms: _218  and  _219
REMARK   83  A    between atoms: _218  and  _221
REMARK   84  A    between atoms: _221  and  _222
REMARK   85  A    between atoms: _222  and  _223
REMARK   86  A    between atoms: _225  and  _227
REMARK   87  A    between atoms: _227  and  _228
REMARK   88  A    between atoms: _227  and  _230
REMARK   89  A    between atoms: _230  and  _231
REMARK   90  A    between atoms: _241  and  _243
REMARK   91  A    between atoms: _243  and  _244
REMARK   92  A    between atoms: _243  and  _246
REMARK   93  A    between atoms: _246  and  _247
REMARK   94  A    between atoms: _250  and  _252
REMARK   95  A    between atoms: _252  and  _253
REMARK   96  A    between atoms: _252  and  _255
REMARK   97  A    between atoms: _255  and  _256
REMARK   98  A    between atoms: _256  and  _257
REMARK   99  A    between atoms: _260  and  _262
REMARK  100  A    between atoms: _262  and  _263
REMARK  101  A    between atoms: _262  and  _265
REMARK  102  A    between atoms: _265  and  _266
REMARK  103  A    between atoms: _271  and  _273
REMARK  104  A    between atoms: _273  and  _274
REMARK  105  A    between atoms: _276  and  _278
REMARK  106  A    between atoms: _278  and  _279
REMARK  107  A    between atoms: _282  and  _284
REMARK  108  A    between atoms: _284  and  _285
REMARK  109  A    between atoms: _288  and  _290
REMARK  110  A    between atoms: _290  and  _291
REMARK  111  A    between atoms: _290  and  _293
REMARK  112  A    between atoms: _293  and  _294
REMARK  113  A    between atoms: _304  and  _306
REMARK  114  A    between atoms: _306  and  _307
REMARK  115  A    between atoms: _306  and  _309
REMARK  116  A    between atoms: _309  and  _310
REMARK  117  A    between atoms: _312  and  _314
REMARK  118  A    between atoms: _314  and  _315
REMARK  119  A    between atoms: _314  and  _317
REMARK  120  A    between atoms: _317  and  _318
REMARK  121  A    between atoms: _323  and  _325
REMARK  122  A    between atoms: _325  and  _326
REMARK  123  A    between atoms: _325  and  _328
REMARK  124  A    between atoms: _328  and  _329
REMARK  125  A    between atoms: _335  and  _337
REMARK  126  A    between atoms: _337  and  _338
REMARK  127  A    between atoms: _337  and  _340
REMARK  128  A    between atoms: _340  and  _341
REMARK  129  A    between atoms: _341  and  _342
REMARK  130  A    between atoms: _345  and  _347
REMARK  131  A    between atoms: _347  and  _348
REMARK  132  A    between atoms: _347  and  _350
REMARK  133  A    between atoms: _350  and  _351
REMARK  134  A    between atoms: _361  and  _363
REMARK  135  A    between atoms: _363  and  _364
REMARK  136  A    between atoms: _367  and  _369
REMARK  137  A    between atoms: _369  and  _370
REMARK  138  A    between atoms: _369  and  _372
REMARK  139  A    between atoms: _372  and  _373
REMARK  140  A    between atoms: _373  and  _374
REMARK  141  A    between atoms: _377  and  _379
REMARK  142  A    between atoms: _379  and  _380
REMARK  143  A    between atoms: _379  and  _382
REMARK  144  A    between atoms: _382  and  _383
REMARK  145  A    between atoms: _383  and  _384
REMARK  146  A    between atoms: _384  and  _385
REMARK  147  A    between atoms: _385  and  _386
REMARK  148  A    between atoms: _390  and  _392
REMARK  149  A    between atoms: _392  and  _393
REMARK  150  A    between atoms: _392  and  _395
REMARK  151  A    between atoms: _395  and  _396
REMARK                            x       y       z     vdW  Elec       q    Type
REMARK                         _______ _______ _______ _____ _____    ______ ____
ROOT
ATOM      1  O   HOH     1      -2.800   9.968  16.499  0.00  0.00    +0.000 OA
ENDROOT
TORSDOF 0
REMARK  Name = ../refined-set-2016/2j75/2j75_pocket.pdb
REMARK  151 active torsions:
REMARK  status: ('A' for Active; 'I' for Inactive)
REMARK    1  A    between atoms: _1  and  _3
REMARK    2  A    between atoms: _3  and  _4
REMARK    3  A    between atoms: _7  and  _9
REMARK    4  A    between atoms: _9  and  _10
REMARK    5  A    between atoms: _9  and  _12
REMARK    6  A    between atoms: _12  and  _13
REMARK    7  A    between atoms: _16  and  _18
REMARK    8  A    between atoms: _18  and  _19
REMARK    9  A    between atoms: _22  and  _24
REMARK   10  A    between atoms: _24  and  _25
REMARK   11  A    between atoms: _24  and  _27
REMARK   12  A    between atoms: _27  and  _28
REMARK   13  A    between atoms: _30  and  _32
REMARK   14  A    between atoms: _32  and  _33
REMARK   15  A    between atoms: _32  and  _35
REMARK   16  A    between atoms: _35  and  _36
REMARK   17  A    between atoms: _36  and  _37
REMARK   18  A    between atoms: _42  and  _44
REMARK   19  A    between atoms: _44  and  _45
REMARK   20  A    between atoms: _44  and  _47
REMARK   21  A    between atoms: _47  and  _48
REMARK   22  A    between atoms: _48  and  _49
REMARK   23  A    between atoms: _49  and  _50
REMARK   24  A    between atoms: _59  and  _61
REMARK   25  A    between atoms: _61  and  _62
REMARK   26  A    between atoms: _61  and  _64
REMARK   27  A    between atoms: _64  and  _65
REMARK   28  A    between atoms: _68  and  _70
REMARK   29  A    between atoms: _70  and  _71
REMARK   30  A    between atoms: _70  and  _73
REMARK   31  A    between atoms: _73  and  _74
REMARK   32  A    between atoms: _79  and  _81
REMARK   33  A    between atoms: _81  and  _82
REMARK   34  A    between atoms: _81  and  _84
REMARK   35  A    between atoms: _84  and  _85
REMARK   36  A    between atoms: _95  and  _97
REMARK   37  A    between atoms: _97  and  _98
REMARK   38  A    between atoms: _97  and  _100
REMARK   39  A    between atoms: _100  and  _101
REMARK   40  A    between atoms: _106  and  _108
REMARK   41  A    between atoms: _108  and  _109
REMARK   42  A    between atoms: _108  and  _111
REMARK   43  A    between atoms: _111  and  _112
REMARK   44  A    between atoms: _112  and  _113
REMARK   45  A    between atoms: _116  and  _118
REMARK   46  A    between atoms: _118  and  _119
REMARK   47  A    between atoms: _118  and  _121
REMARK   48  A    between atoms: _124  and  _126
REMARK   49  A    between atoms: _126  and  _127
REMARK   50  A    between atoms: _126  and  _129
REMARK   51  A    between atoms: _129  and  _130
REMARK   52  A    between atoms: _135  and  _137
REMARK   53  A    between atoms: _137  and  _138
REMARK   54  A    between atoms: _137  and  _140
REMARK   55  A    between atoms: _143  and  _145
REMARK   56  A    between atoms: _145  and  _146
REMARK   57  A    between atoms: _145  and  _148
REMARK   58  A    between atoms: _148  and  _149
REMARK   59  A    between atoms: _155  and  _157
REMARK   60  A    between atoms: _157  and  _158
REMARK   61  A    between atoms: _157  and  _160
REMARK   62  A    between atoms: _160  and  _161
REMARK   63  A    between atoms: _166  and  _168
REMARK   64  A    between atoms: _168  and  _169
REMARK   65  A    between atoms: _168  and  _171
REMARK   66  A    between atoms: _171  and  _172
REMARK   67  A    between atoms: _177  and  _179
REMARK   68  A    between atoms: _179  and  _180
REMARK   69  A    between atoms: _179  and  _182
REMARK   70  A    between atoms: _182  and  _183
REMARK   71  A    between atoms: _188  and  _190
REMARK   72  A    between atoms: _190  and  _191
REMARK   73  A    between atoms: _190  and  _193
REMARK   74  A    between atoms: _193  and  _194
REMARK   75  A    between atoms: _199  and  _200
REMARK   76  A    between atoms: _202  and  _204
REMARK   77  A    between atoms: _204  and  _205
REMARK   78  A    between atoms: _204  and  _207
REMARK   79  A    between atoms: _207  and  _208
REMARK   80  A    between atoms: _213  and  _214
REMARK   81  A    between atoms: _216  and  _218
REMARK   82  A    between atoms: _218  and  _219
REMARK   83  A    between atoms: _218  and  _221
REMARK   84  A    between atoms: _221  and  _222
REMARK   85  A    between atoms: _222  and  _223
REMARK   86  A    between atoms: _225  and  _227
REMARK   87  A    between atoms: _227  and  _228
REMARK   88  A    between atoms: _227  and  _230
REMARK   89  A    between atoms: _230  and  _231
REMARK   90  A    between atoms: _241  and  _243
REMARK   91  A    between atoms: _243  and  _244
REMARK   92  A    between atoms: _243  and  _246
REMARK   93  A    between atoms: _246  and  _247
REMARK   94  A    between atoms: _250  and  _252
REMARK   95  A    between atoms: _252  and  _253
REMARK   96  A    between atoms: _252  and  _255
REMARK   97  A    between atoms: _255  and  _256
REMARK   98  A    between atoms: _256  and  _257
REMARK   99  A    between atoms: _260  and  _262
REMARK  100  A    between atoms: _262  and  _263
REMARK  101  A    between atoms: _262  and  _265
REMARK  102  A    between atoms: _265  and  _266
REMARK  103  A    between atoms: _271  and  _273
REMARK  104  A    between atoms: _273  and  _274
REMARK  105  A    between atoms: _276  and  _278
REMARK  106  A    between atoms: _278  and  _279
REMARK  107  A    between atoms: _282  and  _284
REMARK  108  A    between atoms: _284  and  _285
REMARK  109  A    between atoms: _288  and  _290
REMARK  110  A    between atoms: _290  and  _291
REMARK  111  A    between atoms: _290  and  _293
REMARK  112  A    between atoms: _293  and  _294
REMARK  113  A    between atoms: _304  and  _306
REMARK  114  A    between atoms: _306  and  _307
REMARK  115  A    between atoms: _306  and  _309
REMARK  116  A    between atoms: _309  and  _310
REMARK  117  A    between atoms: _312  and  _314
REMARK  118  A    between atoms: _314  and  _315
REMARK  119  A    between atoms: _314  and  _317
REMARK  120  A    between atoms: _317  and  _318
REMARK  121  A    between atoms: _323  and  _325
REMARK  122  A    between atoms: _325  and  _326
REMARK  123  A    between atoms: _325  and  _328
REMARK  124  A    between atoms: _328  and  _329
REMARK  125  A    between atoms: _335  and  _337
REMARK  126  A    between atoms: _337  and  _338
REMARK  127  A    between atoms: _337  and  _340
REMARK  128  A    between atoms: _340  and  _341
REMARK  129  A    between atoms: _341  and  _342
REMARK  130  A    between atoms: _345  and  _347
REMARK  131  A    between atoms: _347  and  _348
REMARK  132  A    between atoms: _347  and  _350
REMARK  133  A    between atoms: _350  and  _351
REMARK  134  A    between atoms: _361  and  _363
REMARK  135  A    between atoms: _363  and  _364
REMARK  136  A    between atoms: _367  and  _369
REMARK  137  A    between atoms: _369  and  _370
REMARK  138  A    between atoms: _369  and  _372
REMARK  139  A    between atoms: _372  and  _373
REMARK  140  A    between atoms: _373  and  _374
REMARK  141  A    between atoms: _377  and  _379
REMARK  142  A    between atoms: _379  and  _380
REMARK  143  A    between atoms: _379  and  _382
REMARK  144  A    between atoms: _382  and  _383
REMARK  145  A    between atoms: _383  and  _384
REMARK  146  A    between atoms: _384  and  _385
REMARK  147  A    between atoms: _385  and  _386
REMARK  148  A    between atoms: _390  and  _392
REMARK  149  A    between atoms: _392  and  _393
REMARK  150  A    between atoms: _392  and  _395
REMARK  151  A    between atoms: _395  and  _396
REMARK                            x       y       z     vdW  Elec       q    Type
REMARK                         _______ _______ _______ _____ _____    ______ ____
ROOT
ATOM      1  O   HOH     1      -1.295   6.606  17.614  0.00  0.00    +0.000 OA
ENDROOT
TORSDOF 0
REMARK  Name = ../refined-set-2016/2j75/2j75_pocket.pdb
REMARK  151 active torsions:
REMARK  status: ('A' for Active; 'I' for Inactive)
REMARK    1  A    between atoms: _1  and  _3
REMARK    2  A    between atoms: _3  and  _4
REMARK    3  A    between atoms: _7  and  _9
REMARK    4  A    between atoms: _9  and  _10
REMARK    5  A    between atoms: _9  and  _12
REMARK    6  A    between atoms: _12  and  _13
REMARK    7  A    between atoms: _16  and  _18
REMARK    8  A    between atoms: _18  and  _19
REMARK    9  A    between atoms: _22  and  _24
REMARK   10  A    between atoms: _24  and  _25
REMARK   11  A    between atoms: _24  and  _27
REMARK   12  A    between atoms: _27  and  _28
REMARK   13  A    between atoms: _30  and  _32
REMARK   14  A    between atoms: _32  and  _33
REMARK   15  A    between atoms: _32  and  _35
REMARK   16  A    between atoms: _35  and  _36
REMARK   17  A    between atoms: _36  and  _37
REMARK   18  A    between atoms: _42  and  _44
REMARK   19  A    between atoms: _44  and  _45
REMARK   20  A    between atoms: _44  and  _47
REMARK   21  A    between atoms: _47  and  _48
REMARK   22  A    between atoms: _48  and  _49
REMARK   23  A    between atoms: _49  and  _50
REMARK   24  A    between atoms: _59  and  _61
REMARK   25  A    between atoms: _61  and  _62
REMARK   26  A    between atoms: _61  and  _64
REMARK   27  A    between atoms: _64  and  _65
REMARK   28  A    between atoms: _68  and  _70
REMARK   29  A    between atoms: _70  and  _71
REMARK   30  A    between atoms: _70  and  _73
REMARK   31  A    between atoms: _73  and  _74
REMARK   32  A    between atoms: _79  and  _81
REMARK   33  A    between atoms: _81  and  _82
REMARK   34  A    between atoms: _81  and  _84
REMARK   35  A    between atoms: _84  and  _85
REMARK   36  A    between atoms: _95  and  _97
REMARK   37  A    between atoms: _97  and  _98
REMARK   38  A    between atoms: _97  and  _100
REMARK   39  A    between atoms: _100  and  _101
REMARK   40  A    between atoms: _106  and  _108
REMARK   41  A    between atoms: _108  and  _109
REMARK   42  A    between atoms: _108  and  _111
REMARK   43  A    between atoms: _111  and  _112
REMARK   44  A    between atoms: _112  and  _113
REMARK   45  A    between atoms: _116  and  _118
REMARK   46  A    between atoms: _118  and  _119
REMARK   47  A    between atoms: _118  and  _121
REMARK   48  A    between atoms: _124  and  _126
REMARK   49  A    between atoms: _126  and  _127
REMARK   50  A    between atoms: _126  and  _129
REMARK   51  A    between atoms: _129  and  _130
REMARK   52  A    between atoms: _135  and  _137
REMARK   53  A    between atoms: _137  and  _138
REMARK   54  A    between atoms: _137  and  _140
REMARK   55  A    between atoms: _143  and  _145
REMARK   56  A    between atoms: _145  and  _146
REMARK   57  A    between atoms: _145  and  _148
REMARK   58  A    between atoms: _148  and  _149
REMARK   59  A    between atoms: _155  and  _157
REMARK   60  A    between atoms: _157  and  _158
REMARK   61  A    between atoms: _157  and  _160
REMARK   62  A    between atoms: _160  and  _161
REMARK   63  A    between atoms: _166  and  _168
REMARK   64  A    between atoms: _168  and  _169
REMARK   65  A    between atoms: _168  and  _171
REMARK   66  A    between atoms: _171  and  _172
REMARK   67  A    between atoms: _177  and  _179
REMARK   68  A    between atoms: _179  and  _180
REMARK   69  A    between atoms: _179  and  _182
REMARK   70  A    between atoms: _182  and  _183
REMARK   71  A    between atoms: _188  and  _190
REMARK   72  A    between atoms: _190  and  _191
REMARK   73  A    between atoms: _190  and  _193
REMARK   74  A    between atoms: _193  and  _194
REMARK   75  A    between atoms: _199  and  _200
REMARK   76  A    between atoms: _202  and  _204
REMARK   77  A    between atoms: _204  and  _205
REMARK   78  A    between atoms: _204  and  _207
REMARK   79  A    between atoms: _207  and  _208
REMARK   80  A    between atoms: _213  and  _214
REMARK   81  A    between atoms: _216  and  _218
REMARK   82  A    between atoms: _218  and  _219
REMARK   83  A    between atoms: _218  and  _221
REMARK   84  A    between atoms: _221  and  _222
REMARK   85  A    between atoms: _222  and  _223
REMARK   86  A    between atoms: _225  and  _227
REMARK   87  A    between atoms: _227  and  _228
REMARK   88  A    between atoms: _227  and  _230
REMARK   89  A    between atoms: _230  and  _231
REMARK   90  A    between atoms: _241  and  _243
REMARK   91  A    between atoms: _243  and  _244
REMARK   92  A    between atoms: _243  and  _246
REMARK   93  A    between atoms: _246  and  _247
REMARK   94  A    between atoms: _250  and  _252
REMARK   95  A    between atoms: _252  and  _253
REMARK   96  A    between atoms: _252  and  _255
REMARK   97  A    between atoms: _255  and  _256
REMARK   98  A    between atoms: _256  and  _257
REMARK   99  A    between atoms: _260  and  _262
REMARK  100  A    between atoms: _262  and  _263
REMARK  101  A    between atoms: _262  and  _265
REMARK  102  A    between atoms: _265  and  _266
REMARK  103  A    between atoms: _271  and  _273
REMARK  104  A    between atoms: _273  and  _274
REMARK  105  A    between atoms: _276  and  _278
REMARK  106  A    between atoms: _278  and  _279
REMARK  107  A    between atoms: _282  and  _284
REMARK  108  A    between atoms: _284  and  _285
REMARK  109  A    between atoms: _288  and  _290
REMARK  110  A    between atoms: _290  and  _291
REMARK  111  A    between atoms: _290  and  _293
REMARK  112  A    between atoms: _293  and  _294
REMARK  113  A    between atoms: _304  and  _306
REMARK  114  A    between atoms: _306  and  _307
REMARK  115  A    between atoms: _306  and  _309
REMARK  116  A    between atoms: _309  and  _310
REMARK  117  A    between atoms: _312  and  _314
REMARK  118  A    between atoms: _314  and  _315
REMARK  119  A    between atoms: _314  and  _317
REMARK  120  A    between atoms: _317  and  _318
REMARK  121  A    between atoms: _323  and  _325
REMARK  122  A    between atoms: _325  and  _326
REMARK  123  A    between atoms: _325  and  _328
REMARK  124  A    between atoms: _328  and  _329
REMARK  125  A    between atoms: _335  and  _337
REMARK  126  A    between atoms: _337  and  _338
REMARK  127  A    between atoms: _337  and  _340
REMARK  128  A    between atoms: _340  and  _341
REMARK  129  A    between atoms: _341  and  _342
REMARK  130  A    between atoms: _345  and  _347
REMARK  131  A    between atoms: _347  and  _348
REMARK  132  A    between atoms: _347  and  _350
REMARK  133  A    between atoms: _350  and  _351
REMARK  134  A    between atoms: _361  and  _363
REMARK  135  A    between atoms: _363  and  _364
REMARK  136  A    between atoms: _367  and  _369
REMARK  137  A    between atoms: _369  and  _370
REMARK  138  A    between atoms: _369  and  _372
REMARK  139  A    between atoms: _372  and  _373
REMARK  140  A    between atoms: _373  and  _374
REMARK  141  A    between atoms: _377  and  _379
REMARK  142  A    between atoms: _379  and  _380
REMARK  143  A    between atoms: _379  and  _382
REMARK  144  A    between atoms: _382  and  _383
REMARK  145  A    between atoms: _383  and  _384
REMARK  146  A    between atoms: _384  and  _385
REMARK  147  A    between atoms: _385  and  _386
REMARK  148  A    between atoms: _390  and  _392
REMARK  149  A    between atoms: _392  and  _393
REMARK  150  A    between atoms: _392  and  _395
REMARK  151  A    between atoms: _395  and  _396
REMARK                            x       y       z     vdW  Elec       q    Type
REMARK                         _______ _______ _______ _____ _____    ______ ____
ROOT
ATOM      1  O   HOH     1      -4.242   4.377  15.851  0.00  0.00    +0.000 OA
ENDROOT
TORSDOF 0
REMARK  Name = ../refined-set-2016/2j75/2j75_pocket.pdb
REMARK  151 active torsions:
REMARK  status: ('A' for Active; 'I' for Inactive)
REMARK    1  A    between atoms: _1  and  _3
REMARK    2  A    between atoms: _3  and  _4
REMARK    3  A    between atoms: _7  and  _9
REMARK    4  A    between atoms: _9  and  _10
REMARK    5  A    between atoms: _9  and  _12
REMARK    6  A    between atoms: _12  and  _13
REMARK    7  A    between atoms: _16  and  _18
REMARK    8  A    between atoms: _18  and  _19
REMARK    9  A    between atoms: _22  and  _24
REMARK   10  A    between atoms: _24  and  _25
REMARK   11  A    between atoms: _24  and  _27
REMARK   12  A    between atoms: _27  and  _28
REMARK   13  A    between atoms: _30  and  _32
REMARK   14  A    between atoms: _32  and  _33
REMARK   15  A    between atoms: _32  and  _35
REMARK   16  A    between atoms: _35  and  _36
REMARK   17  A    between atoms: _36  and  _37
REMARK   18  A    between atoms: _42  and  _44
REMARK   19  A    between atoms: _44  and  _45
REMARK   20  A    between atoms: _44  and  _47
REMARK   21  A    between atoms: _47  and  _48
REMARK   22  A    between atoms: _48  and  _49
REMARK   23  A    between atoms: _49  and  _50
REMARK   24  A    between atoms: _59  and  _61
REMARK   25  A    between atoms: _61  and  _62
REMARK   26  A    between atoms: _61  and  _64
REMARK   27  A    between atoms: _64  and  _65
REMARK   28  A    between atoms: _68  and  _70
REMARK   29  A    between atoms: _70  and  _71
REMARK   30  A    between atoms: _70  and  _73
REMARK   31  A    between atoms: _73  and  _74
REMARK   32  A    between atoms: _79  and  _81
REMARK   33  A    between atoms: _81  and  _82
REMARK   34  A    between atoms: _81  and  _84
REMARK   35  A    between atoms: _84  and  _85
REMARK   36  A    between atoms: _95  and  _97
REMARK   37  A    between atoms: _97  and  _98
REMARK   38  A    between atoms: _97  and  _100
REMARK   39  A    between atoms: _100  and  _101
REMARK   40  A    between atoms: _106  and  _108
REMARK   41  A    between atoms: _108  and  _109
REMARK   42  A    between atoms: _108  and  _111
REMARK   43  A    between atoms: _111  and  _112
REMARK   44  A    between atoms: _112  and  _113
REMARK   45  A    between atoms: _116  and  _118
REMARK   46  A    between atoms: _118  and  _119
REMARK   47  A    between atoms: _118  and  _121
REMARK   48  A    between atoms: _124  and  _126
REMARK   49  A    between atoms: _126  and  _127
REMARK   50  A    between atoms: _126  and  _129
REMARK   51  A    between atoms: _129  and  _130
REMARK   52  A    between atoms: _135  and  _137
REMARK   53  A    between atoms: _137  and  _138
REMARK   54  A    between atoms: _137  and  _140
REMARK   55  A    between atoms: _143  and  _145
REMARK   56  A    between atoms: _145  and  _146
REMARK   57  A    between atoms: _145  and  _148
REMARK   58  A    between atoms: _148  and  _149
REMARK   59  A    between atoms: _155  and  _157
REMARK   60  A    between atoms: _157  and  _158
REMARK   61  A    between atoms: _157  and  _160
REMARK   62  A    between atoms: _160  and  _161
REMARK   63  A    between atoms: _166  and  _168
REMARK   64  A    between atoms: _168  and  _169
REMARK   65  A    between atoms: _168  and  _171
REMARK   66  A    between atoms: _171  and  _172
REMARK   67  A    between atoms: _177  and  _179
REMARK   68  A    between atoms: _179  and  _180
REMARK   69  A    between atoms: _179  and  _182
REMARK   70  A    between atoms: _182  and  _183
REMARK   71  A    between atoms: _188  and  _190
REMARK   72  A    between atoms: _190  and  _191
REMARK   73  A    between atoms: _190  and  _193
REMARK   74  A    between atoms: _193  and  _194
REMARK   75  A    between atoms: _199  and  _200
REMARK   76  A    between atoms: _202  and  _204
REMARK   77  A    between atoms: _204  and  _205
REMARK   78  A    between atoms: _204  and  _207
REMARK   79  A    between atoms: _207  and  _208
REMARK   80  A    between atoms: _213  and  _214
REMARK   81  A    between atoms: _216  and  _218
REMARK   82  A    between atoms: _218  and  _219
REMARK   83  A    between atoms: _218  and  _221
REMARK   84  A    between atoms: _221  and  _222
REMARK   85  A    between atoms: _222  and  _223
REMARK   86  A    between atoms: _225  and  _227
REMARK   87  A    between atoms: _227  and  _228
REMARK   88  A    between atoms: _227  and  _230
REMARK   89  A    between atoms: _230  and  _231
REMARK   90  A    between atoms: _241  and  _243
REMARK   91  A    between atoms: _243  and  _244
REMARK   92  A    between atoms: _243  and  _246
REMARK   93  A    between atoms: _246  and  _247
REMARK   94  A    between atoms: _250  and  _252
REMARK   95  A    between atoms: _252  and  _253
REMARK   96  A    between atoms: _252  and  _255
REMARK   97  A    between atoms: _255  and  _256
REMARK   98  A    between atoms: _256  and  _257
REMARK   99  A    between atoms: _260  and  _262
REMARK  100  A    between atoms: _262  and  _263
REMARK  101  A    between atoms: _262  and  _265
REMARK  102  A    between atoms: _265  and  _266
REMARK  103  A    between atoms: _271  and  _273
REMARK  104  A    between atoms: _273  and  _274
REMARK  105  A    between atoms: _276  and  _278
REMARK  106  A    between atoms: _278  and  _279
REMARK  107  A    between atoms: _282  and  _284
REMARK  108  A    between atoms: _284  and  _285
REMARK  109  A    between atoms: _288  and  _290
REMARK  110  A    between atoms: _290  and  _291
REMARK  111  A    between atoms: _290  and  _293
REMARK  112  A    between atoms: _293  and  _294
REMARK  113  A    between atoms: _304  and  _306
REMARK  114  A    between atoms: _306  and  _307
REMARK  115  A    between atoms: _306  and  _309
REMARK  116  A    between atoms: _309  and  _310
REMARK  117  A    between atoms: _312  and  _314
REMARK  118  A    between atoms: _314  and  _315
REMARK  119  A    between atoms: _314  and  _317
REMARK  120  A    between atoms: _317  and  _318
REMARK  121  A    between atoms: _323  and  _325
REMARK  122  A    between atoms: _325  and  _326
REMARK  123  A    between atoms: _325  and  _328
REMARK  124  A    between atoms: _328  and  _329
REMARK  125  A    between atoms: _335  and  _337
REMARK  126  A    between atoms: _337  and  _338
REMARK  127  A    between atoms: _337  and  _340
REMARK  128  A    between atoms: _340  and  _341
REMARK  129  A    between atoms: _341  and  _342
REMARK  130  A    between atoms: _345  and  _347
REMARK  131  A    between atoms: _347  and  _348
REMARK  132  A    between atoms: _347  and  _350
REMARK  133  A    between atoms: _350  and  _351
REMARK  134  A    between atoms: _361  and  _363
REMARK  135  A    between atoms: _363  and  _364
REMARK  136  A    between atoms: _367  and  _369
REMARK  137  A    between atoms: _369  and  _370
REMARK  138  A    between atoms: _369  and  _372
REMARK  139  A    between atoms: _372  and  _373
REMARK  140  A    between atoms: _373  and  _374
REMARK  141  A    between atoms: _377  and  _379
REMARK  142  A    between atoms: _379  and  _380
REMARK  143  A    between atoms: _379  and  _382
REMARK  144  A    between atoms: _382  and  _383
REMARK  145  A    between atoms: _383  and  _384
REMARK  146  A    between atoms: _384  and  _385
REMARK  147  A    between atoms: _385  and  _386
REMARK  148  A    between atoms: _390  and  _392
REMARK  149  A    between atoms: _392  and  _393
REMARK  150  A    between atoms: _392  and  _395
REMARK  151  A    between atoms: _395  and  _396
REMARK                            x       y       z     vdW  Elec       q    Type
REMARK                         _______ _______ _______ _____ _____    ______ ____
ROOT
ATOM      1  O   HOH     1      -9.104   6.071   9.559  0.00  0.00    +0.000 OA
ENDROOT
TORSDOF 0
REMARK  Name = ../refined-set-2016/2j75/2j75_pocket.pdb
REMARK  151 active torsions:
REMARK  status: ('A' for Active; 'I' for Inactive)
REMARK    1  A    between atoms: _1  and  _3
REMARK    2  A    between atoms: _3  and  _4
REMARK    3  A    between atoms: _7  and  _9
REMARK    4  A    between atoms: _9  and  _10
REMARK    5  A    between atoms: _9  and  _12
REMARK    6  A    between atoms: _12  and  _13
REMARK    7  A    between atoms: _16  and  _18
REMARK    8  A    between atoms: _18  and  _19
REMARK    9  A    between atoms: _22  and  _24
REMARK   10  A    between atoms: _24  and  _25
REMARK   11  A    between atoms: _24  and  _27
REMARK   12  A    between atoms: _27  and  _28
REMARK   13  A    between atoms: _30  and  _32
REMARK   14  A    between atoms: _32  and  _33
REMARK   15  A    between atoms: _32  and  _35
REMARK   16  A    between atoms: _35  and  _36
REMARK   17  A    between atoms: _36  and  _37
REMARK   18  A    between atoms: _42  and  _44
REMARK   19  A    between atoms: _44  and  _45
REMARK   20  A    between atoms: _44  and  _47
REMARK   21  A    between atoms: _47  and  _48
REMARK   22  A    between atoms: _48  and  _49
REMARK   23  A    between atoms: _49  and  _50
REMARK   24  A    between atoms: _59  and  _61
REMARK   25  A    between atoms: _61  and  _62
REMARK   26  A    between atoms: _61  and  _64
REMARK   27  A    between atoms: _64  and  _65
REMARK   28  A    between atoms: _68  and  _70
REMARK   29  A    between atoms: _70  and  _71
REMARK   30  A    between atoms: _70  and  _73
REMARK   31  A    between atoms: _73  and  _74
REMARK   32  A    between atoms: _79  and  _81
REMARK   33  A    between atoms: _81  and  _82
REMARK   34  A    between atoms: _81  and  _84
REMARK   35  A    between atoms: _84  and  _85
REMARK   36  A    between atoms: _95  and  _97
REMARK   37  A    between atoms: _97  and  _98
REMARK   38  A    between atoms: _97  and  _100
REMARK   39  A    between atoms: _100  and  _101
REMARK   40  A    between atoms: _106  and  _108
REMARK   41  A    between atoms: _108  and  _109
REMARK   42  A    between atoms: _108  and  _111
REMARK   43  A    between atoms: _111  and  _112
REMARK   44  A    between atoms: _112  and  _113
REMARK   45  A    between atoms: _116  and  _118
REMARK   46  A    between atoms: _118  and  _119
REMARK   47  A    between atoms: _118  and  _121
REMARK   48  A    between atoms: _124  and  _126
REMARK   49  A    between atoms: _126  and  _127
REMARK   50  A    between atoms: _126  and  _129
REMARK   51  A    between atoms: _129  and  _130
REMARK   52  A    between atoms: _135  and  _137
REMARK   53  A    between atoms: _137  and  _138
REMARK   54  A    between atoms: _137  and  _140
REMARK   55  A    between atoms: _143  and  _145
REMARK   56  A    between atoms: _145  and  _146
REMARK   57  A    between atoms: _145  and  _148
REMARK   58  A    between atoms: _148  and  _149
REMARK   59  A    between atoms: _155  and  _157
REMARK   60  A    between atoms: _157  and  _158
REMARK   61  A    between atoms: _157  and  _160
REMARK   62  A    between atoms: _160  and  _161
REMARK   63  A    between atoms: _166  and  _168
REMARK   64  A    between atoms: _168  and  _169
REMARK   65  A    between atoms: _168  and  _171
REMARK   66  A    between atoms: _171  and  _172
REMARK   67  A    between atoms: _177  and  _179
REMARK   68  A    between atoms: _179  and  _180
REMARK   69  A    between atoms: _179  and  _182
REMARK   70  A    between atoms: _182  and  _183
REMARK   71  A    between atoms: _188  and  _190
REMARK   72  A    between atoms: _190  and  _191
REMARK   73  A    between atoms: _190  and  _193
REMARK   74  A    between atoms: _193  and  _194
REMARK   75  A    between atoms: _199  and  _200
REMARK   76  A    between atoms: _202  and  _204
REMARK   77  A    between atoms: _204  and  _205
REMARK   78  A    between atoms: _204  and  _207
REMARK   79  A    between atoms: _207  and  _208
REMARK   80  A    between atoms: _213  and  _214
REMARK   81  A    between atoms: _216  and  _218
REMARK   82  A    between atoms: _218  and  _219
REMARK   83  A    between atoms: _218  and  _221
REMARK   84  A    between atoms: _221  and  _222
REMARK   85  A    between atoms: _222  and  _223
REMARK   86  A    between atoms: _225  and  _227
REMARK   87  A    between atoms: _227  and  _228
REMARK   88  A    between atoms: _227  and  _230
REMARK   89  A    between atoms: _230  and  _231
REMARK   90  A    between atoms: _241  and  _243
REMARK   91  A    between atoms: _243  and  _244
REMARK   92  A    between atoms: _243  and  _246
REMARK   93  A    between atoms: _246  and  _247
REMARK   94  A    between atoms: _250  and  _252
REMARK   95  A    between atoms: _252  and  _253
REMARK   96  A    between atoms: _252  and  _255
REMARK   97  A    between atoms: _255  and  _256
REMARK   98  A    between atoms: _256  and  _257
REMARK   99  A    between atoms: _260  and  _262
REMARK  100  A    between atoms: _262  and  _263
REMARK  101  A    between atoms: _262  and  _265
REMARK  102  A    between atoms: _265  and  _266
REMARK  103  A    between atoms: _271  and  _273
REMARK  104  A    between atoms: _273  and  _274
REMARK  105  A    between atoms: _276  and  _278
REMARK  106  A    between atoms: _278  and  _279
REMARK  107  A    between atoms: _282  and  _284
REMARK  108  A    between atoms: _284  and  _285
REMARK  109  A    between atoms: _288  and  _290
REMARK  110  A    between atoms: _290  and  _291
REMARK  111  A    between atoms: _290  and  _293
REMARK  112  A    between atoms: _293  and  _294
REMARK  113  A    between atoms: _304  and  _306
REMARK  114  A    between atoms: _306  and  _307
REMARK  115  A    between atoms: _306  and  _309
REMARK  116  A    between atoms: _309  and  _310
REMARK  117  A    between atoms: _312  and  _314
REMARK  118  A    between atoms: _314  and  _315
REMARK  119  A    between atoms: _314  and  _317
REMARK  120  A    between atoms: _317  and  _318
REMARK  121  A    between atoms: _323  and  _325
REMARK  122  A    between atoms: _325  and  _326
REMARK  123  A    between atoms: _325  and  _328
REMARK  124  A    between atoms: _328  and  _329
REMARK  125  A    between atoms: _335  and  _337
REMARK  126  A    between atoms: _337  and  _338
REMARK  127  A    between atoms: _337  and  _340
REMARK  128  A    between atoms: _340  and  _341
REMARK  129  A    between atoms: _341  and  _342
REMARK  130  A    between atoms: _345  and  _347
REMARK  131  A    between atoms: _347  and  _348
REMARK  132  A    between atoms: _347  and  _350
REMARK  133  A    between atoms: _350  and  _351
REMARK  134  A    between atoms: _361  and  _363
REMARK  135  A    between atoms: _363  and  _364
REMARK  136  A    between atoms: _367  and  _369
REMARK  137  A    between atoms: _369  and  _370
REMARK  138  A    between atoms: _369  and  _372
REMARK  139  A    between atoms: _372  and  _373
REMARK  140  A    between atoms: _373  and  _374
REMARK  141  A    between atoms: _377  and  _379
REMARK  142  A    between atoms: _379  and  _380
REMARK  143  A    between atoms: _379  and  _382
REMARK  144  A    between atoms: _382  and  _383
REMARK  145  A    between atoms: _383  and  _384
REMARK  146  A    between atoms: _384  and  _385
REMARK  147  A    between atoms: _385  and  _386
REMARK  148  A    between atoms: _390  and  _392
REMARK  149  A    between atoms: _392  and  _393
REMARK  150  A    between atoms: _392  and  _395
REMARK  151  A    between atoms: _395  and  _396
REMARK                            x       y       z     vdW  Elec       q    Type
REMARK                         _______ _______ _______ _____ _____    ______ ____
ROOT
ATOM      1  O   HOH     1      -9.879   7.414  11.893  0.00  0.00    +0.000 OA
ENDROOT
TORSDOF 0
REMARK  Name = ../refined-set-2016/2j75/2j75_pocket.pdb
REMARK  151 active torsions:
REMARK  status: ('A' for Active; 'I' for Inactive)
REMARK    1  A    between atoms: _1  and  _3
REMARK    2  A    between atoms: _3  and  _4
REMARK    3  A    between atoms: _7  and  _9
REMARK    4  A    between atoms: _9  and  _10
REMARK    5  A    between atoms: _9  and  _12
REMARK    6  A    between atoms: _12  and  _13
REMARK    7  A    between atoms: _16  and  _18
REMARK    8  A    between atoms: _18  and  _19
REMARK    9  A    between atoms: _22  and  _24
REMARK   10  A    between atoms: _24  and  _25
REMARK   11  A    between atoms: _24  and  _27
REMARK   12  A    between atoms: _27  and  _28
REMARK   13  A    between atoms: _30  and  _32
REMARK   14  A    between atoms: _32  and  _33
REMARK   15  A    between atoms: _32  and  _35
REMARK   16  A    between atoms: _35  and  _36
REMARK   17  A    between atoms: _36  and  _37
REMARK   18  A    between atoms: _42  and  _44
REMARK   19  A    between atoms: _44  and  _45
REMARK   20  A    between atoms: _44  and  _47
REMARK   21  A    between atoms: _47  and  _48
REMARK   22  A    between atoms: _48  and  _49
REMARK   23  A    between atoms: _49  and  _50
REMARK   24  A    between atoms: _59  and  _61
REMARK   25  A    between atoms: _61  and  _62
REMARK   26  A    between atoms: _61  and  _64
REMARK   27  A    between atoms: _64  and  _65
REMARK   28  A    between atoms: _68  and  _70
REMARK   29  A    between atoms: _70  and  _71
REMARK   30  A    between atoms: _70  and  _73
REMARK   31  A    between atoms: _73  and  _74
REMARK   32  A    between atoms: _79  and  _81
REMARK   33  A    between atoms: _81  and  _82
REMARK   34  A    between atoms: _81  and  _84
REMARK   35  A    between atoms: _84  and  _85
REMARK   36  A    between atoms: _95  and  _97
REMARK   37  A    between atoms: _97  and  _98
REMARK   38  A    between atoms: _97  and  _100
REMARK   39  A    between atoms: _100  and  _101
REMARK   40  A    between atoms: _106  and  _108
REMARK   41  A    between atoms: _108  and  _109
REMARK   42  A    between atoms: _108  and  _111
REMARK   43  A    between atoms: _111  and  _112
REMARK   44  A    between atoms: _112  and  _113
REMARK   45  A    between atoms: _116  and  _118
REMARK   46  A    between atoms: _118  and  _119
REMARK   47  A    between atoms: _118  and  _121
REMARK   48  A    between atoms: _124  and  _126
REMARK   49  A    between atoms: _126  and  _127
REMARK   50  A    between atoms: _126  and  _129
REMARK   51  A    between atoms: _129  and  _130
REMARK   52  A    between atoms: _135  and  _137
REMARK   53  A    between atoms: _137  and  _138
REMARK   54  A    between atoms: _137  and  _140
REMARK   55  A    between atoms: _143  and  _145
REMARK   56  A    between atoms: _145  and  _146
REMARK   57  A    between atoms: _145  and  _148
REMARK   58  A    between atoms: _148  and  _149
REMARK   59  A    between atoms: _155  and  _157
REMARK   60  A    between atoms: _157  and  _158
REMARK   61  A    between atoms: _157  and  _160
REMARK   62  A    between atoms: _160  and  _161
REMARK   63  A    between atoms: _166  and  _168
REMARK   64  A    between atoms: _168  and  _169
REMARK   65  A    between atoms: _168  and  _171
REMARK   66  A    between atoms: _171  and  _172
REMARK   67  A    between atoms: _177  and  _179
REMARK   68  A    between atoms: _179  and  _180
REMARK   69  A    between atoms: _179  and  _182
REMARK   70  A    between atoms: _182  and  _183
REMARK   71  A    between atoms: _188  and  _190
REMARK   72  A    between atoms: _190  and  _191
REMARK   73  A    between atoms: _190  and  _193
REMARK   74  A    between atoms: _193  and  _194
REMARK   75  A    between atoms: _199  and  _200
REMARK   76  A    between atoms: _202  and  _204
REMARK   77  A    between atoms: _204  and  _205
REMARK   78  A    between atoms: _204  and  _207
REMARK   79  A    between atoms: _207  and  _208
REMARK   80  A    between atoms: _213  and  _214
REMARK   81  A    between atoms: _216  and  _218
REMARK   82  A    between atoms: _218  and  _219
REMARK   83  A    between atoms: _218  and  _221
REMARK   84  A    between atoms: _221  and  _222
REMARK   85  A    between atoms: _222  and  _223
REMARK   86  A    between atoms: _225  and  _227
REMARK   87  A    between atoms: _227  and  _228
REMARK   88  A    between atoms: _227  and  _230
REMARK   89  A    between atoms: _230  and  _231
REMARK   90  A    between atoms: _241  and  _243
REMARK   91  A    between atoms: _243  and  _244
REMARK   92  A    between atoms: _243  and  _246
REMARK   93  A    between atoms: _246  and  _247
REMARK   94  A    between atoms: _250  and  _252
REMARK   95  A    between atoms: _252  and  _253
REMARK   96  A    between atoms: _252  and  _255
REMARK   97  A    between atoms: _255  and  _256
REMARK   98  A    between atoms: _256  and  _257
REMARK   99  A    between atoms: _260  and  _262
REMARK  100  A    between atoms: _262  and  _263
REMARK  101  A    between atoms: _262  and  _265
REMARK  102  A    between atoms: _265  and  _266
REMARK  103  A    between atoms: _271  and  _273
REMARK  104  A    between atoms: _273  and  _274
REMARK  105  A    between atoms: _276  and  _278
REMARK  106  A    between atoms: _278  and  _279
REMARK  107  A    between atoms: _282  and  _284
REMARK  108  A    between atoms: _284  and  _285
REMARK  109  A    between atoms: _288  and  _290
REMARK  110  A    between atoms: _290  and  _291
REMARK  111  A    between atoms: _290  and  _293
REMARK  112  A    between atoms: _293  and  _294
REMARK  113  A    between atoms: _304  and  _306
REMARK  114  A    between atoms: _306  and  _307
REMARK  115  A    between atoms: _306  and  _309
REMARK  116  A    between atoms: _309  and  _310
REMARK  117  A    between atoms: _312  and  _314
REMARK  118  A    between atoms: _314  and  _315
REMARK  119  A    between atoms: _314  and  _317
REMARK  120  A    between atoms: _317  and  _318
REMARK  121  A    between atoms: _323  and  _325
REMARK  122  A    between atoms: _325  and  _326
REMARK  123  A    between atoms: _325  and  _328
REMARK  124  A    between atoms: _328  and  _329
REMARK  125  A    between atoms: _335  and  _337
REMARK  126  A    between atoms: _337  and  _338
REMARK  127  A    between atoms: _337  and  _340
REMARK  128  A    between atoms: _340  and  _341
REMARK  129  A    between atoms: _341  and  _342
REMARK  130  A    between atoms: _345  and  _347
REMARK  131  A    between atoms: _347  and  _348
REMARK  132  A    between atoms: _347  and  _350
REMARK  133  A    between atoms: _350  and  _351
REMARK  134  A    between atoms: _361  and  _363
REMARK  135  A    between atoms: _363  and  _364
REMARK  136  A    between atoms: _367  and  _369
REMARK  137  A    between atoms: _369  and  _370
REMARK  138  A    between atoms: _369  and  _372
REMARK  139  A    between atoms: _372  and  _373
REMARK  140  A    between atoms: _373  and  _374
REMARK  141  A    between atoms: _377  and  _379
REMARK  142  A    between atoms: _379  and  _380
REMARK  143  A    between atoms: _379  and  _382
REMARK  144  A    between atoms: _382  and  _383
REMARK  145  A    between atoms: _383  and  _384
REMARK  146  A    between atoms: _384  and  _385
REMARK  147  A    between atoms: _385  and  _386
REMARK  148  A    between atoms: _390  and  _392
REMARK  149  A    between atoms: _392  and  _393
REMARK  150  A    between atoms: _392  and  _395
REMARK  151  A    between atoms: _395  and  _396
REMARK                            x       y       z     vdW  Elec       q    Type
REMARK                         _______ _______ _______ _____ _____    ______ ____
ROOT
ATOM      1  O   HOH     1      -3.880  10.467   4.194  0.00  0.00    +0.000 OA
ENDROOT
TORSDOF 0
REMARK  Name = ../refined-set-2016/2j75/2j75_pocket.pdb
REMARK  151 active torsions:
REMARK  status: ('A' for Active; 'I' for Inactive)
REMARK    1  A    between atoms: _1  and  _3
REMARK    2  A    between atoms: _3  and  _4
REMARK    3  A    between atoms: _7  and  _9
REMARK    4  A    between atoms: _9  and  _10
REMARK    5  A    between atoms: _9  and  _12
REMARK    6  A    between atoms: _12  and  _13
REMARK    7  A    between atoms: _16  and  _18
REMARK    8  A    between atoms: _18  and  _19
REMARK    9  A    between atoms: _22  and  _24
REMARK   10  A    between atoms: _24  and  _25
REMARK   11  A    between atoms: _24  and  _27
REMARK   12  A    between atoms: _27  and  _28
REMARK   13  A    between atoms: _30  and  _32
REMARK   14  A    between atoms: _32  and  _33
REMARK   15  A    between atoms: _32  and  _35
REMARK   16  A    between atoms: _35  and  _36
REMARK   17  A    between atoms: _36  and  _37
REMARK   18  A    between atoms: _42  and  _44
REMARK   19  A    between atoms: _44  and  _45
REMARK   20  A    between atoms: _44  and  _47
REMARK   21  A    between atoms: _47  and  _48
REMARK   22  A    between atoms: _48  and  _49
REMARK   23  A    between atoms: _49  and  _50
REMARK   24  A    between atoms: _59  and  _61
REMARK   25  A    between atoms: _61  and  _62
REMARK   26  A    between atoms: _61  and  _64
REMARK   27  A    between atoms: _64  and  _65
REMARK   28  A    between atoms: _68  and  _70
REMARK   29  A    between atoms: _70  and  _71
REMARK   30  A    between atoms: _70  and  _73
REMARK   31  A    between atoms: _73  and  _74
REMARK   32  A    between atoms: _79  and  _81
REMARK   33  A    between atoms: _81  and  _82
REMARK   34  A    between atoms: _81  and  _84
REMARK   35  A    between atoms: _84  and  _85
REMARK   36  A    between atoms: _95  and  _97
REMARK   37  A    between atoms: _97  and  _98
REMARK   38  A    between atoms: _97  and  _100
REMARK   39  A    between atoms: _100  and  _101
REMARK   40  A    between atoms: _106  and  _108
REMARK   41  A    between atoms: _108  and  _109
REMARK   42  A    between atoms: _108  and  _111
REMARK   43  A    between atoms: _111  and  _112
REMARK   44  A    between atoms: _112  and  _113
REMARK   45  A    between atoms: _116  and  _118
REMARK   46  A    between atoms: _118  and  _119
REMARK   47  A    between atoms: _118  and  _121
REMARK   48  A    between atoms: _124  and  _126
REMARK   49  A    between atoms: _126  and  _127
REMARK   50  A    between atoms: _126  and  _129
REMARK   51  A    between atoms: _129  and  _130
REMARK   52  A    between atoms: _135  and  _137
REMARK   53  A    between atoms: _137  and  _138
REMARK   54  A    between atoms: _137  and  _140
REMARK   55  A    between atoms: _143  and  _145
REMARK   56  A    between atoms: _145  and  _146
REMARK   57  A    between atoms: _145  and  _148
REMARK   58  A    between atoms: _148  and  _149
REMARK   59  A    between atoms: _155  and  _157
REMARK   60  A    between atoms: _157  and  _158
REMARK   61  A    between atoms: _157  and  _160
REMARK   62  A    between atoms: _160  and  _161
REMARK   63  A    between atoms: _166  and  _168
REMARK   64  A    between atoms: _168  and  _169
REMARK   65  A    between atoms: _168  and  _171
REMARK   66  A    between atoms: _171  and  _172
REMARK   67  A    between atoms: _177  and  _179
REMARK   68  A    between atoms: _179  and  _180
REMARK   69  A    between atoms: _179  and  _182
REMARK   70  A    between atoms: _182  and  _183
REMARK   71  A    between atoms: _188  and  _190
REMARK   72  A    between atoms: _190  and  _191
REMARK   73  A    between atoms: _190  and  _193
REMARK   74  A    between atoms: _193  and  _194
REMARK   75  A    between atoms: _199  and  _200
REMARK   76  A    between atoms: _202  and  _204
REMARK   77  A    between atoms: _204  and  _205
REMARK   78  A    between atoms: _204  and  _207
REMARK   79  A    between atoms: _207  and  _208
REMARK   80  A    between atoms: _213  and  _214
REMARK   81  A    between atoms: _216  and  _218
REMARK   82  A    between atoms: _218  and  _219
REMARK   83  A    between atoms: _218  and  _221
REMARK   84  A    between atoms: _221  and  _222
REMARK   85  A    between atoms: _222  and  _223
REMARK   86  A    between atoms: _225  and  _227
REMARK   87  A    between atoms: _227  and  _228
REMARK   88  A    between atoms: _227  and  _230
REMARK   89  A    between atoms: _230  and  _231
REMARK   90  A    between atoms: _241  and  _243
REMARK   91  A    between atoms: _243  and  _244
REMARK   92  A    between atoms: _243  and  _246
REMARK   93  A    between atoms: _246  and  _247
REMARK   94  A    between atoms: _250  and  _252
REMARK   95  A    between atoms: _252  and  _253
REMARK   96  A    between atoms: _252  and  _255
REMARK   97  A    between atoms: _255  and  _256
REMARK   98  A    between atoms: _256  and  _257
REMARK   99  A    between atoms: _260  and  _262
REMARK  100  A    between atoms: _262  and  _263
REMARK  101  A    between atoms: _262  and  _265
REMARK  102  A    between atoms: _265  and  _266
REMARK  103  A    between atoms: _271  and  _273
REMARK  104  A    between atoms: _273  and  _274
REMARK  105  A    between atoms: _276  and  _278
REMARK  106  A    between atoms: _278  and  _279
REMARK  107  A    between atoms: _282  and  _284
REMARK  108  A    between atoms: _284  and  _285
REMARK  109  A    between atoms: _288  and  _290
REMARK  110  A    between atoms: _290  and  _291
REMARK  111  A    between atoms: _290  and  _293
REMARK  112  A    between atoms: _293  and  _294
REMARK  113  A    between atoms: _304  and  _306
REMARK  114  A    between atoms: _306  and  _307
REMARK  115  A    between atoms: _306  and  _309
REMARK  116  A    between atoms: _309  and  _310
REMARK  117  A    between atoms: _312  and  _314
REMARK  118  A    between atoms: _314  and  _315
REMARK  119  A    between atoms: _314  and  _317
REMARK  120  A    between atoms: _317  and  _318
REMARK  121  A    between atoms: _323  and  _325
REMARK  122  A    between atoms: _325  and  _326
REMARK  123  A    between atoms: _325  and  _328
REMARK  124  A    between atoms: _328  and  _329
REMARK  125  A    between atoms: _335  and  _337
REMARK  126  A    between atoms: _337  and  _338
REMARK  127  A    between atoms: _337  and  _340
REMARK  128  A    between atoms: _340  and  _341
REMARK  129  A    between atoms: _341  and  _342
REMARK  130  A    between atoms: _345  and  _347
REMARK  131  A    between atoms: _347  and  _348
REMARK  132  A    between atoms: _347  and  _350
REMARK  133  A    between atoms: _350  and  _351
REMARK  134  A    between atoms: _361  and  _363
REMARK  135  A    between atoms: _363  and  _364
REMARK  136  A    between atoms: _367  and  _369
REMARK  137  A    between atoms: _369  and  _370
REMARK  138  A    between atoms: _369  and  _372
REMARK  139  A    between atoms: _372  and  _373
REMARK  140  A    between atoms: _373  and  _374
REMARK  141  A    between atoms: _377  and  _379
REMARK  142  A    between atoms: _379  and  _380
REMARK  143  A    between atoms: _379  and  _382
REMARK  144  A    between atoms: _382  and  _383
REMARK  145  A    between atoms: _383  and  _384
REMARK  146  A    between atoms: _384  and  _385
REMARK  147  A    between atoms: _385  and  _386
REMARK  148  A    between atoms: _390  and  _392
REMARK  149  A    between atoms: _392  and  _393
REMARK  150  A    between atoms: _392  and  _395
REMARK  151  A    between atoms: _395  and  _396
REMARK                            x       y       z     vdW  Elec       q    Type
REMARK                         _______ _______ _______ _____ _____    ______ ____
ROOT
ATOM      1  O   HOH     1      -0.653   4.691   7.114  0.00  0.00    +0.000 OA
ENDROOT
TORSDOF 0
REMARK  Name = ../refined-set-2016/2j75/2j75_pocket.pdb
REMARK  151 active torsions:
REMARK  status: ('A' for Active; 'I' for Inactive)
REMARK    1  A    between atoms: _1  and  _3
REMARK    2  A    between atoms: _3  and  _4
REMARK    3  A    between atoms: _7  and  _9
REMARK    4  A    between atoms: _9  and  _10
REMARK    5  A    between atoms: _9  and  _12
REMARK    6  A    between atoms: _12  and  _13
REMARK    7  A    between atoms: _16  and  _18
REMARK    8  A    between atoms: _18  and  _19
REMARK    9  A    between atoms: _22  and  _24
REMARK   10  A    between atoms: _24  and  _25
REMARK   11  A    between atoms: _24  and  _27
REMARK   12  A    between atoms: _27  and  _28
REMARK   13  A    between atoms: _30  and  _32
REMARK   14  A    between atoms: _32  and  _33
REMARK   15  A    between atoms: _32  and  _35
REMARK   16  A    between atoms: _35  and  _36
REMARK   17  A    between atoms: _36  and  _37
REMARK   18  A    between atoms: _42  and  _44
REMARK   19  A    between atoms: _44  and  _45
REMARK   20  A    between atoms: _44  and  _47
REMARK   21  A    between atoms: _47  and  _48
REMARK   22  A    between atoms: _48  and  _49
REMARK   23  A    between atoms: _49  and  _50
REMARK   24  A    between atoms: _59  and  _61
REMARK   25  A    between atoms: _61  and  _62
REMARK   26  A    between atoms: _61  and  _64
REMARK   27  A    between atoms: _64  and  _65
REMARK   28  A    between atoms: _68  and  _70
REMARK   29  A    between atoms: _70  and  _71
REMARK   30  A    between atoms: _70  and  _73
REMARK   31  A    between atoms: _73  and  _74
REMARK   32  A    between atoms: _79  and  _81
REMARK   33  A    between atoms: _81  and  _82
REMARK   34  A    between atoms: _81  and  _84
REMARK   35  A    between atoms: _84  and  _85
REMARK   36  A    between atoms: _95  and  _97
REMARK   37  A    between atoms: _97  and  _98
REMARK   38  A    between atoms: _97  and  _100
REMARK   39  A    between atoms: _100  and  _101
REMARK   40  A    between atoms: _106  and  _108
REMARK   41  A    between atoms: _108  and  _109
REMARK   42  A    between atoms: _108  and  _111
REMARK   43  A    between atoms: _111  and  _112
REMARK   44  A    between atoms: _112  and  _113
REMARK   45  A    between atoms: _116  and  _118
REMARK   46  A    between atoms: _118  and  _119
REMARK   47  A    between atoms: _118  and  _121
REMARK   48  A    between atoms: _124  and  _126
REMARK   49  A    between atoms: _126  and  _127
REMARK   50  A    between atoms: _126  and  _129
REMARK   51  A    between atoms: _129  and  _130
REMARK   52  A    between atoms: _135  and  _137
REMARK   53  A    between atoms: _137  and  _138
REMARK   54  A    between atoms: _137  and  _140
REMARK   55  A    between atoms: _143  and  _145
REMARK   56  A    between atoms: _145  and  _146
REMARK   57  A    between atoms: _145  and  _148
REMARK   58  A    between atoms: _148  and  _149
REMARK   59  A    between atoms: _155  and  _157
REMARK   60  A    between atoms: _157  and  _158
REMARK   61  A    between atoms: _157  and  _160
REMARK   62  A    between atoms: _160  and  _161
REMARK   63  A    between atoms: _166  and  _168
REMARK   64  A    between atoms: _168  and  _169
REMARK   65  A    between atoms: _168  and  _171
REMARK   66  A    between atoms: _171  and  _172
REMARK   67  A    between atoms: _177  and  _179
REMARK   68  A    between atoms: _179  and  _180
REMARK   69  A    between atoms: _179  and  _182
REMARK   70  A    between atoms: _182  and  _183
REMARK   71  A    between atoms: _188  and  _190
REMARK   72  A    between atoms: _190  and  _191
REMARK   73  A    between atoms: _190  and  _193
REMARK   74  A    between atoms: _193  and  _194
REMARK   75  A    between atoms: _199  and  _200
REMARK   76  A    between atoms: _202  and  _204
REMARK   77  A    between atoms: _204  and  _205
REMARK   78  A    between atoms: _204  and  _207
REMARK   79  A    between atoms: _207  and  _208
REMARK   80  A    between atoms: _213  and  _214
REMARK   81  A    between atoms: _216  and  _218
REMARK   82  A    between atoms: _218  and  _219
REMARK   83  A    between atoms: _218  and  _221
REMARK   84  A    between atoms: _221  and  _222
REMARK   85  A    between atoms: _222  and  _223
REMARK   86  A    between atoms: _225  and  _227
REMARK   87  A    between atoms: _227  and  _228
REMARK   88  A    between atoms: _227  and  _230
REMARK   89  A    between atoms: _230  and  _231
REMARK   90  A    between atoms: _241  and  _243
REMARK   91  A    between atoms: _243  and  _244
REMARK   92  A    between atoms: _243  and  _246
REMARK   93  A    between atoms: _246  and  _247
REMARK   94  A    between atoms: _250  and  _252
REMARK   95  A    between atoms: _252  and  _253
REMARK   96  A    between atoms: _252  and  _255
REMARK   97  A    between atoms: _255  and  _256
REMARK   98  A    between atoms: _256  and  _257
REMARK   99  A    between atoms: _260  and  _262
REMARK  100  A    between atoms: _262  and  _263
REMARK  101  A    between atoms: _262  and  _265
REMARK  102  A    between atoms: _265  and  _266
REMARK  103  A    between atoms: _271  and  _273
REMARK  104  A    between atoms: _273  and  _274
REMARK  105  A    between atoms: _276  and  _278
REMARK  106  A    between atoms: _278  and  _279
REMARK  107  A    between atoms: _282  and  _284
REMARK  108  A    between atoms: _284  and  _285
REMARK  109  A    between atoms: _288  and  _290
REMARK  110  A    between atoms: _290  and  _291
REMARK  111  A    between atoms: _290  and  _293
REMARK  112  A    between atoms: _293  and  _294
REMARK  113  A    between atoms: _304  and  _306
REMARK  114  A    between atoms: _306  and  _307
REMARK  115  A    between atoms: _306  and  _309
REMARK  116  A    between atoms: _309  and  _310
REMARK  117  A    between atoms: _312  and  _314
REMARK  118  A    between atoms: _314  and  _315
REMARK  119  A    between atoms: _314  and  _317
REMARK  120  A    between atoms: _317  and  _318
REMARK  121  A    between atoms: _323  and  _325
REMARK  122  A    between atoms: _325  and  _326
REMARK  123  A    between atoms: _325  and  _328
REMARK  124  A    between atoms: _328  and  _329
REMARK  125  A    between atoms: _335  and  _337
REMARK  126  A    between atoms: _337  and  _338
REMARK  127  A    between atoms: _337  and  _340
REMARK  128  A    between atoms: _340  and  _341
REMARK  129  A    between atoms: _341  and  _342
REMARK  130  A    between atoms: _345  and  _347
REMARK  131  A    between atoms: _347  and  _348
REMARK  132  A    between atoms: _347  and  _350
REMARK  133  A    between atoms: _350  and  _351
REMARK  134  A    between atoms: _361  and  _363
REMARK  135  A    between atoms: _363  and  _364
REMARK  136  A    between atoms: _367  and  _369
REMARK  137  A    between atoms: _369  and  _370
REMARK  138  A    between atoms: _369  and  _372
REMARK  139  A    between atoms: _372  and  _373
REMARK  140  A    between atoms: _373  and  _374
REMARK  141  A    between atoms: _377  and  _379
REMARK  142  A    between atoms: _379  and  _380
REMARK  143  A    between atoms: _379  and  _382
REMARK  144  A    between atoms: _382  and  _383
REMARK  145  A    between atoms: _383  and  _384
REMARK  146  A    between atoms: _384  and  _385
REMARK  147  A    between atoms: _385  and  _386
REMARK  148  A    between atoms: _390  and  _392
REMARK  149  A    between atoms: _392  and  _393
REMARK  150  A    between atoms: _392  and  _395
REMARK  151  A    between atoms: _395  and  _396
REMARK                            x       y       z     vdW  Elec       q    Type
REMARK                         _______ _______ _______ _____ _____    ______ ____
ROOT
ATOM      1  O   HOH     1      -5.799   9.944   1.970  0.00  0.00    +0.000 OA
ENDROOT
TORSDOF 0
REMARK  Name = ../refined-set-2016/2j75/2j75_pocket.pdb
REMARK  151 active torsions:
REMARK  status: ('A' for Active; 'I' for Inactive)
REMARK    1  A    between atoms: _1  and  _3
REMARK    2  A    between atoms: _3  and  _4
REMARK    3  A    between atoms: _7  and  _9
REMARK    4  A    between atoms: _9  and  _10
REMARK    5  A    between atoms: _9  and  _12
REMARK    6  A    between atoms: _12  and  _13
REMARK    7  A    between atoms: _16  and  _18
REMARK    8  A    between atoms: _18  and  _19
REMARK    9  A    between atoms: _22  and  _24
REMARK   10  A    between atoms: _24  and  _25
REMARK   11  A    between atoms: _24  and  _27
REMARK   12  A    between atoms: _27  and  _28
REMARK   13  A    between atoms: _30  and  _32
REMARK   14  A    between atoms: _32  and  _33
REMARK   15  A    between atoms: _32  and  _35
REMARK   16  A    between atoms: _35  and  _36
REMARK   17  A    between atoms: _36  and  _37
REMARK   18  A    between atoms: _42  and  _44
REMARK   19  A    between atoms: _44  and  _45
REMARK   20  A    between atoms: _44  and  _47
REMARK   21  A    between atoms: _47  and  _48
REMARK   22  A    between atoms: _48  and  _49
REMARK   23  A    between atoms: _49  and  _50
REMARK   24  A    between atoms: _59  and  _61
REMARK   25  A    between atoms: _61  and  _62
REMARK   26  A    between atoms: _61  and  _64
REMARK   27  A    between atoms: _64  and  _65
REMARK   28  A    between atoms: _68  and  _70
REMARK   29  A    between atoms: _70  and  _71
REMARK   30  A    between atoms: _70  and  _73
REMARK   31  A    between atoms: _73  and  _74
REMARK   32  A    between atoms: _79  and  _81
REMARK   33  A    between atoms: _81  and  _82
REMARK   34  A    between atoms: _81  and  _84
REMARK   35  A    between atoms: _84  and  _85
REMARK   36  A    between atoms: _95  and  _97
REMARK   37  A    between atoms: _97  and  _98
REMARK   38  A    between atoms: _97  and  _100
REMARK   39  A    between atoms: _100  and  _101
REMARK   40  A    between atoms: _106  and  _108
REMARK   41  A    between atoms: _108  and  _109
REMARK   42  A    between atoms: _108  and  _111
REMARK   43  A    between atoms: _111  and  _112
REMARK   44  A    between atoms: _112  and  _113
REMARK   45  A    between atoms: _116  and  _118
REMARK   46  A    between atoms: _118  and  _119
REMARK   47  A    between atoms: _118  and  _121
REMARK   48  A    between atoms: _124  and  _126
REMARK   49  A    between atoms: _126  and  _127
REMARK   50  A    between atoms: _126  and  _129
REMARK   51  A    between atoms: _129  and  _130
REMARK   52  A    between atoms: _135  and  _137
REMARK   53  A    between atoms: _137  and  _138
REMARK   54  A    between atoms: _137  and  _140
REMARK   55  A    between atoms: _143  and  _145
REMARK   56  A    between atoms: _145  and  _146
REMARK   57  A    between atoms: _145  and  _148
REMARK   58  A    between atoms: _148  and  _149
REMARK   59  A    between atoms: _155  and  _157
REMARK   60  A    between atoms: _157  and  _158
REMARK   61  A    between atoms: _157  and  _160
REMARK   62  A    between atoms: _160  and  _161
REMARK   63  A    between atoms: _166  and  _168
REMARK   64  A    between atoms: _168  and  _169
REMARK   65  A    between atoms: _168  and  _171
REMARK   66  A    between atoms: _171  and  _172
REMARK   67  A    between atoms: _177  and  _179
REMARK   68  A    between atoms: _179  and  _180
REMARK   69  A    between atoms: _179  and  _182
REMARK   70  A    between atoms: _182  and  _183
REMARK   71  A    between atoms: _188  and  _190
REMARK   72  A    between atoms: _190  and  _191
REMARK   73  A    between atoms: _190  and  _193
REMARK   74  A    between atoms: _193  and  _194
REMARK   75  A    between atoms: _199  and  _200
REMARK   76  A    between atoms: _202  and  _204
REMARK   77  A    between atoms: _204  and  _205
REMARK   78  A    between atoms: _204  and  _207
REMARK   79  A    between atoms: _207  and  _208
REMARK   80  A    between atoms: _213  and  _214
REMARK   81  A    between atoms: _216  and  _218
REMARK   82  A    between atoms: _218  and  _219
REMARK   83  A    between atoms: _218  and  _221
REMARK   84  A    between atoms: _221  and  _222
REMARK   85  A    between atoms: _222  and  _223
REMARK   86  A    between atoms: _225  and  _227
REMARK   87  A    between atoms: _227  and  _228
REMARK   88  A    between atoms: _227  and  _230
REMARK   89  A    between atoms: _230  and  _231
REMARK   90  A    between atoms: _241  and  _243
REMARK   91  A    between atoms: _243  and  _244
REMARK   92  A    between atoms: _243  and  _246
REMARK   93  A    between atoms: _246  and  _247
REMARK   94  A    between atoms: _250  and  _252
REMARK   95  A    between atoms: _252  and  _253
REMARK   96  A    between atoms: _252  and  _255
REMARK   97  A    between atoms: _255  and  _256
REMARK   98  A    between atoms: _256  and  _257
REMARK   99  A    between atoms: _260  and  _262
REMARK  100  A    between atoms: _262  and  _263
REMARK  101  A    between atoms: _262  and  _265
REMARK  102  A    between atoms: _265  and  _266
REMARK  103  A    between atoms: _271  and  _273
REMARK  104  A    between atoms: _273  and  _274
REMARK  105  A    between atoms: _276  and  _278
REMARK  106  A    between atoms: _278  and  _279
REMARK  107  A    between atoms: _282  and  _284
REMARK  108  A    between atoms: _284  and  _285
REMARK  109  A    between atoms: _288  and  _290
REMARK  110  A    between atoms: _290  and  _291
REMARK  111  A    between atoms: _290  and  _293
REMARK  112  A    between atoms: _293  and  _294
REMARK  113  A    between atoms: _304  and  _306
REMARK  114  A    between atoms: _306  and  _307
REMARK  115  A    between atoms: _306  and  _309
REMARK  116  A    between atoms: _309  and  _310
REMARK  117  A    between atoms: _312  and  _314
REMARK  118  A    between atoms: _314  and  _315
REMARK  119  A    between atoms: _314  and  _317
REMARK  120  A    between atoms: _317  and  _318
REMARK  121  A    between atoms: _323  and  _325
REMARK  122  A    between atoms: _325  and  _326
REMARK  123  A    between atoms: _325  and  _328
REMARK  124  A    between atoms: _328  and  _329
REMARK  125  A    between atoms: _335  and  _337
REMARK  126  A    between atoms: _337  and  _338
REMARK  127  A    between atoms: _337  and  _340
REMARK  128  A    between atoms: _340  and  _341
REMARK  129  A    between atoms: _341  and  _342
REMARK  130  A    between atoms: _345  and  _347
REMARK  131  A    between atoms: _347  and  _348
REMARK  132  A    between atoms: _347  and  _350
REMARK  133  A    between atoms: _350  and  _351
REMARK  134  A    between atoms: _361  and  _363
REMARK  135  A    between atoms: _363  and  _364
REMARK  136  A    between atoms: _367  and  _369
REMARK  137  A    between atoms: _369  and  _370
REMARK  138  A    between atoms: _369  and  _372
REMARK  139  A    between atoms: _372  and  _373
REMARK  140  A    between atoms: _373  and  _374
REMARK  141  A    between atoms: _377  and  _379
REMARK  142  A    between atoms: _379  and  _380
REMARK  143  A    between atoms: _379  and  _382
REMARK  144  A    between atoms: _382  and  _383
REMARK  145  A    between atoms: _383  and  _384
REMARK  146  A    between atoms: _384  and  _385
REMARK  147  A    between atoms: _385  and  _386
REMARK  148  A    between atoms: _390  and  _392
REMARK  149  A    between atoms: _392  and  _393
REMARK  150  A    between atoms: _392  and  _395
REMARK  151  A    between atoms: _395  and  _396
REMARK                            x       y       z     vdW  Elec       q    Type
REMARK                         _______ _______ _______ _____ _____    ______ ____
ROOT
ATOM      1  O   HOH     1      -1.002   6.310  10.764  0.00  0.00    +0.000 OA
ENDROOT
TORSDOF 0
