REMARK  Name = ../refined-set-2016/2xp7/2xp7_pocket.pdb
REMARK  129 active torsions:
REMARK  status: ('A' for Active; 'I' for Inactive)
REMARK    1  A    between atoms: _1  and  _3
REMARK    2  A    between atoms: _3  and  _4
REMARK    3  A    between atoms: _3  and  _6
REMARK    4  A    between atoms: _6  and  _7
REMARK    5  A    between atoms: _12  and  _14
REMARK    6  A    between atoms: _14  and  _15
REMARK    7  A    between atoms: _14  and  _17
REMARK    8  A    between atoms: _17  and  _18
REMARK    9  A    between atoms: _21  and  _23
REMARK   10  A    between atoms: _23  and  _24
REMARK   11  A    between atoms: _23  and  _26
REMARK   12  A    between atoms: _26  and  _27
REMARK   13  A    between atoms: _27  and  _28
REMARK   14  A    between atoms: _28  and  _29
REMARK   15  A    between atoms: _29  and  _30
REMARK   16  A    between atoms: _34  and  _36
REMARK   17  A    between atoms: _36  and  _37
REMARK   18  A    between atoms: _36  and  _39
REMARK   19  A    between atoms: _39  and  _40
REMARK   20  A    between atoms: _42  and  _44
REMARK   21  A    between atoms: _44  and  _45
REMARK   22  A    between atoms: _44  and  _47
REMARK   23  A    between atoms: _48  and  _49
REMARK   24  A    between atoms: _49  and  _50
REMARK   25  A    between atoms: _59  and  _61
REMARK   26  A    between atoms: _61  and  _62
REMARK   27  A    between atoms: _61  and  _64
REMARK   28  A    between atoms: _65  and  _66
REMARK   29  A    between atoms: _66  and  _67
REMARK   30  A    between atoms: _77  and  _78
REMARK   31  A    between atoms: _83  and  _85
REMARK   32  A    between atoms: _85  and  _86
REMARK   33  A    between atoms: _85  and  _88
REMARK   34  A    between atoms: _88  and  _89
REMARK   35  A    between atoms: _91  and  _93
REMARK   36  A    between atoms: _93  and  _94
REMARK   37  A    between atoms: _93  and  _96
REMARK   38  A    between atoms: _96  and  _97
REMARK   39  A    between atoms: _99  and  _101
REMARK   40  A    between atoms: _101  and  _102
REMARK   41  A    between atoms: _101  and  _104
REMARK   42  A    between atoms: _104  and  _105
REMARK   43  A    between atoms: _115  and  _117
REMARK   44  A    between atoms: _117  and  _118
REMARK   45  A    between atoms: _117  and  _120
REMARK   46  A    between atoms: _120  and  _121
REMARK   47  A    between atoms: _121  and  _122
REMARK   48  A    between atoms: _122  and  _123
REMARK   49  A    between atoms: _132  and  _134
REMARK   50  A    between atoms: _134  and  _135
REMARK   51  A    between atoms: _134  and  _137
REMARK   52  A    between atoms: _137  and  _138
REMARK   53  A    between atoms: _140  and  _142
REMARK   54  A    between atoms: _142  and  _143
REMARK   55  A    between atoms: _142  and  _145
REMARK   56  A    between atoms: _145  and  _146
REMARK   57  A    between atoms: _149  and  _151
REMARK   58  A    between atoms: _151  and  _152
REMARK   59  A    between atoms: _151  and  _154
REMARK   60  A    between atoms: _156  and  _158
REMARK   61  A    between atoms: _158  and  _159
REMARK   62  A    between atoms: _158  and  _161
REMARK   63  A    between atoms: _161  and  _162
REMARK   64  A    between atoms: _164  and  _166
REMARK   65  A    between atoms: _166  and  _167
REMARK   66  A    between atoms: _166  and  _169
REMARK   67  A    between atoms: _169  and  _170
REMARK   68  A    between atoms: _172  and  _174
REMARK   69  A    between atoms: _174  and  _175
REMARK   70  A    between atoms: _178  and  _180
REMARK   71  A    between atoms: _180  and  _181
REMARK   72  A    between atoms: _183  and  _185
REMARK   73  A    between atoms: _185  and  _186
REMARK   74  A    between atoms: _185  and  _188
REMARK   75  A    between atoms: _188  and  _189
REMARK   76  A    between atoms: _192  and  _194
REMARK   77  A    between atoms: _194  and  _195
REMARK   78  A    between atoms: _194  and  _197
REMARK   79  A    between atoms: _197  and  _198
REMARK   80  A    between atoms: _204  and  _206
REMARK   81  A    between atoms: _206  and  _207
REMARK   82  A    between atoms: _206  and  _209
REMARK   83  A    between atoms: _209  and  _210
REMARK   84  A    between atoms: _210  and  _211
REMARK   85  A    between atoms: _216  and  _218
REMARK   86  A    between atoms: _218  and  _219
REMARK   87  A    between atoms: _218  and  _221
REMARK   88  A    between atoms: _221  and  _222
REMARK   89  A    between atoms: _222  and  _223
REMARK   90  A    between atoms: _225  and  _227
REMARK   91  A    between atoms: _227  and  _228
REMARK   92  A    between atoms: _227  and  _230
REMARK   93  A    between atoms: _230  and  _231
REMARK   94  A    between atoms: _231  and  _232
REMARK   95  A    between atoms: _237  and  _239
REMARK   96  A    between atoms: _239  and  _240
REMARK   97  A    between atoms: _239  and  _242
REMARK   98  A    between atoms: _242  and  _243
REMARK   99  A    between atoms: _249  and  _251
REMARK  100  A    between atoms: _251  and  _252
REMARK  101  A    between atoms: _251  and  _254
REMARK  102  A    between atoms: _254  and  _255
REMARK  103  A    between atoms: _255  and  _256
REMARK  104  A    between atoms: _259  and  _261
REMARK  105  A    between atoms: _261  and  _262
REMARK  106  A    between atoms: _261  and  _264
REMARK  107  A    between atoms: _264  and  _265
REMARK  108  A    between atoms: _267  and  _269
REMARK  109  A    between atoms: _269  and  _270
REMARK  110  A    between atoms: _269  and  _272
REMARK  111  A    between atoms: _272  and  _273
REMARK  112  A    between atoms: _276  and  _278
REMARK  113  A    between atoms: _278  and  _279
REMARK  114  A    between atoms: _278  and  _281
REMARK  115  A    between atoms: _281  and  _282
REMARK  116  A    between atoms: _285  and  _287
REMARK  117  A    between atoms: _287  and  _288
REMARK  118  A    between atoms: _287  and  _290
REMARK  119  A    between atoms: _290  and  _291
REMARK  120  A    between atoms: _293  and  _295
REMARK  121  A    between atoms: _295  and  _296
REMARK  122  A    between atoms: _298  and  _300
REMARK  123  A    between atoms: _300  and  _301
REMARK  124  A    between atoms: _300  and  _303
REMARK  125  A    between atoms: _303  and  _304
REMARK  126  A    between atoms: _309  and  _311
REMARK  127  A    between atoms: _311  and  _312
REMARK  128  A    between atoms: _311  and  _314
REMARK  129  A    between atoms: _314  and  _315
REMARK                            x       y       z     vdW  Elec       q    Type
REMARK                         _______ _______ _______ _____ _____    ______ ____
ROOT
ATOM      1  CB  HIS A   1     -32.448  19.950  16.045  0.00  0.00    +0.072 C 
ENDROOT
BRANCH   1   2
ATOM      2  CG  HIS A   1     -33.918  19.764  16.270  0.00  0.00    +0.082 A 
ATOM      3  CD2 HIS A   1     -34.639  19.688  17.419  0.00  0.00    +0.115 A 
ATOM      4  NE2 HIS A   1     -35.959  19.594  17.066  0.00  0.00    -0.221 NA
ATOM      5  CE1 HIS A   1     -36.046  19.567  15.746  0.00  0.00    +0.199 A 
ATOM      6  ND1 HIS A   1     -34.831  19.713  15.243  0.00  0.00    -0.227 NA
ENDBRANCH   1   2
BRANCH   1   7
ATOM      7  CA  HIS A   1     -31.779  20.904  17.077  0.00  0.00    +0.139 C 
BRANCH   7   8
ATOM      8  N   HIS A   1     -31.454  20.209  18.338  0.00  0.00    -0.239 NA
ATOM      9  H   HIS A   1     -32.113  20.294  19.138  0.00  0.00    +0.142 HD
ENDBRANCH   7   8
BRANCH   7  10
ATOM     10  C   HIS A   1     -32.571  22.159  17.293  0.00  0.00    +0.224 C 
ATOM     11  O   HIS A   1     -33.126  22.428  18.387  0.00  0.00    -0.287 OA
ENDBRANCH   7  10
ENDBRANCH   1   7
TORSDOF 4
REMARK  Name = ../refined-set-2016/2xp7/2xp7_pocket.pdb
REMARK  129 active torsions:
REMARK  status: ('A' for Active; 'I' for Inactive)
REMARK    1  A    between atoms: _1  and  _3
REMARK    2  A    between atoms: _3  and  _4
REMARK    3  A    between atoms: _3  and  _6
REMARK    4  A    between atoms: _6  and  _7
REMARK    5  A    between atoms: _12  and  _14
REMARK    6  A    between atoms: _14  and  _15
REMARK    7  A    between atoms: _14  and  _17
REMARK    8  A    between atoms: _17  and  _18
REMARK    9  A    between atoms: _21  and  _23
REMARK   10  A    between atoms: _23  and  _24
REMARK   11  A    between atoms: _23  and  _26
REMARK   12  A    between atoms: _26  and  _27
REMARK   13  A    between atoms: _27  and  _28
REMARK   14  A    between atoms: _28  and  _29
REMARK   15  A    between atoms: _29  and  _30
REMARK   16  A    between atoms: _34  and  _36
REMARK   17  A    between atoms: _36  and  _37
REMARK   18  A    between atoms: _36  and  _39
REMARK   19  A    between atoms: _39  and  _40
REMARK   20  A    between atoms: _42  and  _44
REMARK   21  A    between atoms: _44  and  _45
REMARK   22  A    between atoms: _44  and  _47
REMARK   23  A    between atoms: _48  and  _49
REMARK   24  A    between atoms: _49  and  _50
REMARK   25  A    between atoms: _59  and  _61
REMARK   26  A    between atoms: _61  and  _62
REMARK   27  A    between atoms: _61  and  _64
REMARK   28  A    between atoms: _65  and  _66
REMARK   29  A    between atoms: _66  and  _67
REMARK   30  A    between atoms: _77  and  _78
REMARK   31  A    between atoms: _83  and  _85
REMARK   32  A    between atoms: _85  and  _86
REMARK   33  A    between atoms: _85  and  _88
REMARK   34  A    between atoms: _88  and  _89
REMARK   35  A    between atoms: _91  and  _93
REMARK   36  A    between atoms: _93  and  _94
REMARK   37  A    between atoms: _93  and  _96
REMARK   38  A    between atoms: _96  and  _97
REMARK   39  A    between atoms: _99  and  _101
REMARK   40  A    between atoms: _101  and  _102
REMARK   41  A    between atoms: _101  and  _104
REMARK   42  A    between atoms: _104  and  _105
REMARK   43  A    between atoms: _115  and  _117
REMARK   44  A    between atoms: _117  and  _118
REMARK   45  A    between atoms: _117  and  _120
REMARK   46  A    between atoms: _120  and  _121
REMARK   47  A    between atoms: _121  and  _122
REMARK   48  A    between atoms: _122  and  _123
REMARK   49  A    between atoms: _132  and  _134
REMARK   50  A    between atoms: _134  and  _135
REMARK   51  A    between atoms: _134  and  _137
REMARK   52  A    between atoms: _137  and  _138
REMARK   53  A    between atoms: _140  and  _142
REMARK   54  A    between atoms: _142  and  _143
REMARK   55  A    between atoms: _142  and  _145
REMARK   56  A    between atoms: _145  and  _146
REMARK   57  A    between atoms: _149  and  _151
REMARK   58  A    between atoms: _151  and  _152
REMARK   59  A    between atoms: _151  and  _154
REMARK   60  A    between atoms: _156  and  _158
REMARK   61  A    between atoms: _158  and  _159
REMARK   62  A    between atoms: _158  and  _161
REMARK   63  A    between atoms: _161  and  _162
REMARK   64  A    between atoms: _164  and  _166
REMARK   65  A    between atoms: _166  and  _167
REMARK   66  A    between atoms: _166  and  _169
REMARK   67  A    between atoms: _169  and  _170
REMARK   68  A    between atoms: _172  and  _174
REMARK   69  A    between atoms: _174  and  _175
REMARK   70  A    between atoms: _178  and  _180
REMARK   71  A    between atoms: _180  and  _181
REMARK   72  A    between atoms: _183  and  _185
REMARK   73  A    between atoms: _185  and  _186
REMARK   74  A    between atoms: _185  and  _188
REMARK   75  A    between atoms: _188  and  _189
REMARK   76  A    between atoms: _192  and  _194
REMARK   77  A    between atoms: _194  and  _195
REMARK   78  A    between atoms: _194  and  _197
REMARK   79  A    between atoms: _197  and  _198
REMARK   80  A    between atoms: _204  and  _206
REMARK   81  A    between atoms: _206  and  _207
REMARK   82  A    between atoms: _206  and  _209
REMARK   83  A    between atoms: _209  and  _210
REMARK   84  A    between atoms: _210  and  _211
REMARK   85  A    between atoms: _216  and  _218
REMARK   86  A    between atoms: _218  and  _219
REMARK   87  A    between atoms: _218  and  _221
REMARK   88  A    between atoms: _221  and  _222
REMARK   89  A    between atoms: _222  and  _223
REMARK   90  A    between atoms: _225  and  _227
REMARK   91  A    between atoms: _227  and  _228
REMARK   92  A    between atoms: _227  and  _230
REMARK   93  A    between atoms: _230  and  _231
REMARK   94  A    between atoms: _231  and  _232
REMARK   95  A    between atoms: _237  and  _239
REMARK   96  A    between atoms: _239  and  _240
REMARK   97  A    between atoms: _239  and  _242
REMARK   98  A    between atoms: _242  and  _243
REMARK   99  A    between atoms: _249  and  _251
REMARK  100  A    between atoms: _251  and  _252
REMARK  101  A    between atoms: _251  and  _254
REMARK  102  A    between atoms: _254  and  _255
REMARK  103  A    between atoms: _255  and  _256
REMARK  104  A    between atoms: _259  and  _261
REMARK  105  A    between atoms: _261  and  _262
REMARK  106  A    between atoms: _261  and  _264
REMARK  107  A    between atoms: _264  and  _265
REMARK  108  A    between atoms: _267  and  _269
REMARK  109  A    between atoms: _269  and  _270
REMARK  110  A    between atoms: _269  and  _272
REMARK  111  A    between atoms: _272  and  _273
REMARK  112  A    between atoms: _276  and  _278
REMARK  113  A    between atoms: _278  and  _279
REMARK  114  A    between atoms: _278  and  _281
REMARK  115  A    between atoms: _281  and  _282
REMARK  116  A    between atoms: _285  and  _287
REMARK  117  A    between atoms: _287  and  _288
REMARK  118  A    between atoms: _287  and  _290
REMARK  119  A    between atoms: _290  and  _291
REMARK  120  A    between atoms: _293  and  _295
REMARK  121  A    between atoms: _295  and  _296
REMARK  122  A    between atoms: _298  and  _300
REMARK  123  A    between atoms: _300  and  _301
REMARK  124  A    between atoms: _300  and  _303
REMARK  125  A    between atoms: _303  and  _304
REMARK  126  A    between atoms: _309  and  _311
REMARK  127  A    between atoms: _311  and  _312
REMARK  128  A    between atoms: _311  and  _314
REMARK  129  A    between atoms: _314  and  _315
REMARK                            x       y       z     vdW  Elec       q    Type
REMARK                         _______ _______ _______ _____ _____    ______ ____
ROOT
ATOM      1  CA  LEU A   1     -36.261  23.949  13.961  0.00  0.00    +0.133 C 
ENDROOT
BRANCH   1   2
ATOM      2  N   LEU A   1     -35.429  24.091  15.108  0.00  0.00    -0.239 NA
ATOM      3  H   LEU A   1     -35.858  24.186  16.050  0.00  0.00    +0.142 HD
ENDBRANCH   1   2
BRANCH   1   4
ATOM      4  C   LEU A   1     -36.929  25.266  13.575  0.00  0.00    +0.224 C 
ATOM      5  O   LEU A   1     -37.489  25.973  14.399  0.00  0.00    -0.287 OA
ENDBRANCH   1   4
BRANCH   1   6
ATOM      6  CB  LEU A   1     -37.272  22.802  14.141  0.00  0.00    +0.025 C 
BRANCH   6   7
ATOM      7  CG  LEU A   1     -38.459  22.677  13.162  0.00  0.00    +0.002 C 
ATOM      8  CD2 LEU A   1     -39.484  21.779  13.814  0.00  0.00    +0.000 C 
ATOM      9  CD1 LEU A   1     -38.103  22.018  11.846  0.00  0.00    +0.000 C 
ENDBRANCH   6   7
ENDBRANCH   1   6
TORSDOF 4
REMARK  Name = ../refined-set-2016/2xp7/2xp7_pocket.pdb
REMARK  129 active torsions:
REMARK  status: ('A' for Active; 'I' for Inactive)
REMARK    1  A    between atoms: _1  and  _3
REMARK    2  A    between atoms: _3  and  _4
REMARK    3  A    between atoms: _3  and  _6
REMARK    4  A    between atoms: _6  and  _7
REMARK    5  A    between atoms: _12  and  _14
REMARK    6  A    between atoms: _14  and  _15
REMARK    7  A    between atoms: _14  and  _17
REMARK    8  A    between atoms: _17  and  _18
REMARK    9  A    between atoms: _21  and  _23
REMARK   10  A    between atoms: _23  and  _24
REMARK   11  A    between atoms: _23  and  _26
REMARK   12  A    between atoms: _26  and  _27
REMARK   13  A    between atoms: _27  and  _28
REMARK   14  A    between atoms: _28  and  _29
REMARK   15  A    between atoms: _29  and  _30
REMARK   16  A    between atoms: _34  and  _36
REMARK   17  A    between atoms: _36  and  _37
REMARK   18  A    between atoms: _36  and  _39
REMARK   19  A    between atoms: _39  and  _40
REMARK   20  A    between atoms: _42  and  _44
REMARK   21  A    between atoms: _44  and  _45
REMARK   22  A    between atoms: _44  and  _47
REMARK   23  A    between atoms: _48  and  _49
REMARK   24  A    between atoms: _49  and  _50
REMARK   25  A    between atoms: _59  and  _61
REMARK   26  A    between atoms: _61  and  _62
REMARK   27  A    between atoms: _61  and  _64
REMARK   28  A    between atoms: _65  and  _66
REMARK   29  A    between atoms: _66  and  _67
REMARK   30  A    between atoms: _77  and  _78
REMARK   31  A    between atoms: _83  and  _85
REMARK   32  A    between atoms: _85  and  _86
REMARK   33  A    between atoms: _85  and  _88
REMARK   34  A    between atoms: _88  and  _89
REMARK   35  A    between atoms: _91  and  _93
REMARK   36  A    between atoms: _93  and  _94
REMARK   37  A    between atoms: _93  and  _96
REMARK   38  A    between atoms: _96  and  _97
REMARK   39  A    between atoms: _99  and  _101
REMARK   40  A    between atoms: _101  and  _102
REMARK   41  A    between atoms: _101  and  _104
REMARK   42  A    between atoms: _104  and  _105
REMARK   43  A    between atoms: _115  and  _117
REMARK   44  A    between atoms: _117  and  _118
REMARK   45  A    between atoms: _117  and  _120
REMARK   46  A    between atoms: _120  and  _121
REMARK   47  A    between atoms: _121  and  _122
REMARK   48  A    between atoms: _122  and  _123
REMARK   49  A    between atoms: _132  and  _134
REMARK   50  A    between atoms: _134  and  _135
REMARK   51  A    between atoms: _134  and  _137
REMARK   52  A    between atoms: _137  and  _138
REMARK   53  A    between atoms: _140  and  _142
REMARK   54  A    between atoms: _142  and  _143
REMARK   55  A    between atoms: _142  and  _145
REMARK   56  A    between atoms: _145  and  _146
REMARK   57  A    between atoms: _149  and  _151
REMARK   58  A    between atoms: _151  and  _152
REMARK   59  A    between atoms: _151  and  _154
REMARK   60  A    between atoms: _156  and  _158
REMARK   61  A    between atoms: _158  and  _159
REMARK   62  A    between atoms: _158  and  _161
REMARK   63  A    between atoms: _161  and  _162
REMARK   64  A    between atoms: _164  and  _166
REMARK   65  A    between atoms: _166  and  _167
REMARK   66  A    between atoms: _166  and  _169
REMARK   67  A    between atoms: _169  and  _170
REMARK   68  A    between atoms: _172  and  _174
REMARK   69  A    between atoms: _174  and  _175
REMARK   70  A    between atoms: _178  and  _180
REMARK   71  A    between atoms: _180  and  _181
REMARK   72  A    between atoms: _183  and  _185
REMARK   73  A    between atoms: _185  and  _186
REMARK   74  A    between atoms: _185  and  _188
REMARK   75  A    between atoms: _188  and  _189
REMARK   76  A    between atoms: _192  and  _194
REMARK   77  A    between atoms: _194  and  _195
REMARK   78  A    between atoms: _194  and  _197
REMARK   79  A    between atoms: _197  and  _198
REMARK   80  A    between atoms: _204  and  _206
REMARK   81  A    between atoms: _206  and  _207
REMARK   82  A    between atoms: _206  and  _209
REMARK   83  A    between atoms: _209  and  _210
REMARK   84  A    between atoms: _210  and  _211
REMARK   85  A    between atoms: _216  and  _218
REMARK   86  A    between atoms: _218  and  _219
REMARK   87  A    between atoms: _218  and  _221
REMARK   88  A    between atoms: _221  and  _222
REMARK   89  A    between atoms: _222  and  _223
REMARK   90  A    between atoms: _225  and  _227
REMARK   91  A    between atoms: _227  and  _228
REMARK   92  A    between atoms: _227  and  _230
REMARK   93  A    between atoms: _230  and  _231
REMARK   94  A    between atoms: _231  and  _232
REMARK   95  A    between atoms: _237  and  _239
REMARK   96  A    between atoms: _239  and  _240
REMARK   97  A    between atoms: _239  and  _242
REMARK   98  A    between atoms: _242  and  _243
REMARK   99  A    between atoms: _249  and  _251
REMARK  100  A    between atoms: _251  and  _252
REMARK  101  A    between atoms: _251  and  _254
REMARK  102  A    between atoms: _254  and  _255
REMARK  103  A    between atoms: _255  and  _256
REMARK  104  A    between atoms: _259  and  _261
REMARK  105  A    between atoms: _261  and  _262
REMARK  106  A    between atoms: _261  and  _264
REMARK  107  A    between atoms: _264  and  _265
REMARK  108  A    between atoms: _267  and  _269
REMARK  109  A    between atoms: _269  and  _270
REMARK  110  A    between atoms: _269  and  _272
REMARK  111  A    between atoms: _272  and  _273
REMARK  112  A    between atoms: _276  and  _278
REMARK  113  A    between atoms: _278  and  _279
REMARK  114  A    between atoms: _278  and  _281
REMARK  115  A    between atoms: _281  and  _282
REMARK  116  A    between atoms: _285  and  _287
REMARK  117  A    between atoms: _287  and  _288
REMARK  118  A    between atoms: _287  and  _290
REMARK  119  A    between atoms: _290  and  _291
REMARK  120  A    between atoms: _293  and  _295
REMARK  121  A    between atoms: _295  and  _296
REMARK  122  A    between atoms: _298  and  _300
REMARK  123  A    between atoms: _300  and  _301
REMARK  124  A    between atoms: _300  and  _303
REMARK  125  A    between atoms: _303  and  _304
REMARK  126  A    between atoms: _309  and  _311
REMARK  127  A    between atoms: _311  and  _312
REMARK  128  A    between atoms: _311  and  _314
REMARK  129  A    between atoms: _314  and  _315
REMARK                            x       y       z     vdW  Elec       q    Type
REMARK                         _______ _______ _______ _____ _____    ______ ____
ROOT
ATOM      1  CG  LYS A   1     -42.047  24.022  11.784  0.00  0.00    -0.000 C 
ENDROOT
BRANCH   1   2
ATOM      2  CB  LYS A   1     -42.238  25.412  11.067  0.00  0.00    +0.025 C 
BRANCH   2   3
ATOM      3  CA  LYS A   1     -41.010  25.799  10.222  0.00  0.00    +0.133 C 
BRANCH   3   4
ATOM      4  N   LYS A   1     -39.884  26.259  11.069  0.00  0.00    -0.239 NA
ATOM      5  H   LYS A   1     -40.108  26.715  11.976  0.00  0.00    +0.142 HD
ENDBRANCH   3   4
BRANCH   3   6
ATOM      6  C   LYS A   1     -41.395  26.766   9.111  0.00  0.00    +0.224 C 
ATOM      7  O   LYS A   1     -41.105  27.955   9.164  0.00  0.00    -0.287 OA
ENDBRANCH   3   6
ENDBRANCH   2   3
ENDBRANCH   1   2
BRANCH   1   8
ATOM      8  CD  LYS A   1     -43.418  23.433  12.278  0.00  0.00    -0.024 C 
BRANCH   8   9
ATOM      9  CE  LYS A   1     -43.388  22.708  13.629  0.00  0.00    -0.086 C 
BRANCH   9  10
ATOM     10  NZ  LYS A   1     -44.528  21.758  13.590  0.00  0.00    +0.380 N 
ATOM     11  HZ1 LYS A   1     -44.567  21.228  14.484  0.00  0.00    -0.089 HD
ATOM     12  HZ2 LYS A   1     -45.414  22.287  13.460  0.00  0.00    -0.089 HD
ATOM     13  HZ3 LYS A   1     -44.399  21.096  12.799  0.00  0.00    -0.089 HD
ENDBRANCH   9  10
ENDBRANCH   8   9
ENDBRANCH   1   8
TORSDOF 7
REMARK  Name = ../refined-set-2016/2xp7/2xp7_pocket.pdb
REMARK  129 active torsions:
REMARK  status: ('A' for Active; 'I' for Inactive)
REMARK    1  A    between atoms: _1  and  _3
REMARK    2  A    between atoms: _3  and  _4
REMARK    3  A    between atoms: _3  and  _6
REMARK    4  A    between atoms: _6  and  _7
REMARK    5  A    between atoms: _12  and  _14
REMARK    6  A    between atoms: _14  and  _15
REMARK    7  A    between atoms: _14  and  _17
REMARK    8  A    between atoms: _17  and  _18
REMARK    9  A    between atoms: _21  and  _23
REMARK   10  A    between atoms: _23  and  _24
REMARK   11  A    between atoms: _23  and  _26
REMARK   12  A    between atoms: _26  and  _27
REMARK   13  A    between atoms: _27  and  _28
REMARK   14  A    between atoms: _28  and  _29
REMARK   15  A    between atoms: _29  and  _30
REMARK   16  A    between atoms: _34  and  _36
REMARK   17  A    between atoms: _36  and  _37
REMARK   18  A    between atoms: _36  and  _39
REMARK   19  A    between atoms: _39  and  _40
REMARK   20  A    between atoms: _42  and  _44
REMARK   21  A    between atoms: _44  and  _45
REMARK   22  A    between atoms: _44  and  _47
REMARK   23  A    between atoms: _48  and  _49
REMARK   24  A    between atoms: _49  and  _50
REMARK   25  A    between atoms: _59  and  _61
REMARK   26  A    between atoms: _61  and  _62
REMARK   27  A    between atoms: _61  and  _64
REMARK   28  A    between atoms: _65  and  _66
REMARK   29  A    between atoms: _66  and  _67
REMARK   30  A    between atoms: _77  and  _78
REMARK   31  A    between atoms: _83  and  _85
REMARK   32  A    between atoms: _85  and  _86
REMARK   33  A    between atoms: _85  and  _88
REMARK   34  A    between atoms: _88  and  _89
REMARK   35  A    between atoms: _91  and  _93
REMARK   36  A    between atoms: _93  and  _94
REMARK   37  A    between atoms: _93  and  _96
REMARK   38  A    between atoms: _96  and  _97
REMARK   39  A    between atoms: _99  and  _101
REMARK   40  A    between atoms: _101  and  _102
REMARK   41  A    between atoms: _101  and  _104
REMARK   42  A    between atoms: _104  and  _105
REMARK   43  A    between atoms: _115  and  _117
REMARK   44  A    between atoms: _117  and  _118
REMARK   45  A    between atoms: _117  and  _120
REMARK   46  A    between atoms: _120  and  _121
REMARK   47  A    between atoms: _121  and  _122
REMARK   48  A    between atoms: _122  and  _123
REMARK   49  A    between atoms: _132  and  _134
REMARK   50  A    between atoms: _134  and  _135
REMARK   51  A    between atoms: _134  and  _137
REMARK   52  A    between atoms: _137  and  _138
REMARK   53  A    between atoms: _140  and  _142
REMARK   54  A    between atoms: _142  and  _143
REMARK   55  A    between atoms: _142  and  _145
REMARK   56  A    between atoms: _145  and  _146
REMARK   57  A    between atoms: _149  and  _151
REMARK   58  A    between atoms: _151  and  _152
REMARK   59  A    between atoms: _151  and  _154
REMARK   60  A    between atoms: _156  and  _158
REMARK   61  A    between atoms: _158  and  _159
REMARK   62  A    between atoms: _158  and  _161
REMARK   63  A    between atoms: _161  and  _162
REMARK   64  A    between atoms: _164  and  _166
REMARK   65  A    between atoms: _166  and  _167
REMARK   66  A    between atoms: _166  and  _169
REMARK   67  A    between atoms: _169  and  _170
REMARK   68  A    between atoms: _172  and  _174
REMARK   69  A    between atoms: _174  and  _175
REMARK   70  A    between atoms: _178  and  _180
REMARK   71  A    between atoms: _180  and  _181
REMARK   72  A    between atoms: _183  and  _185
REMARK   73  A    between atoms: _185  and  _186
REMARK   74  A    between atoms: _185  and  _188
REMARK   75  A    between atoms: _188  and  _189
REMARK   76  A    between atoms: _192  and  _194
REMARK   77  A    between atoms: _194  and  _195
REMARK   78  A    between atoms: _194  and  _197
REMARK   79  A    between atoms: _197  and  _198
REMARK   80  A    between atoms: _204  and  _206
REMARK   81  A    between atoms: _206  and  _207
REMARK   82  A    between atoms: _206  and  _209
REMARK   83  A    between atoms: _209  and  _210
REMARK   84  A    between atoms: _210  and  _211
REMARK   85  A    between atoms: _216  and  _218
REMARK   86  A    between atoms: _218  and  _219
REMARK   87  A    between atoms: _218  and  _221
REMARK   88  A    between atoms: _221  and  _222
REMARK   89  A    between atoms: _222  and  _223
REMARK   90  A    between atoms: _225  and  _227
REMARK   91  A    between atoms: _227  and  _228
REMARK   92  A    between atoms: _227  and  _230
REMARK   93  A    between atoms: _230  and  _231
REMARK   94  A    between atoms: _231  and  _232
REMARK   95  A    between atoms: _237  and  _239
REMARK   96  A    between atoms: _239  and  _240
REMARK   97  A    between atoms: _239  and  _242
REMARK   98  A    between atoms: _242  and  _243
REMARK   99  A    between atoms: _249  and  _251
REMARK  100  A    between atoms: _251  and  _252
REMARK  101  A    between atoms: _251  and  _254
REMARK  102  A    between atoms: _254  and  _255
REMARK  103  A    between atoms: _255  and  _256
REMARK  104  A    between atoms: _259  and  _261
REMARK  105  A    between atoms: _261  and  _262
REMARK  106  A    between atoms: _261  and  _264
REMARK  107  A    between atoms: _264  and  _265
REMARK  108  A    between atoms: _267  and  _269
REMARK  109  A    between atoms: _269  and  _270
REMARK  110  A    between atoms: _269  and  _272
REMARK  111  A    between atoms: _272  and  _273
REMARK  112  A    between atoms: _276  and  _278
REMARK  113  A    between atoms: _278  and  _279
REMARK  114  A    between atoms: _278  and  _281
REMARK  115  A    between atoms: _281  and  _282
REMARK  116  A    between atoms: _285  and  _287
REMARK  117  A    between atoms: _287  and  _288
REMARK  118  A    between atoms: _287  and  _290
REMARK  119  A    between atoms: _290  and  _291
REMARK  120  A    between atoms: _293  and  _295
REMARK  121  A    between atoms: _295  and  _296
REMARK  122  A    between atoms: _298  and  _300
REMARK  123  A    between atoms: _300  and  _301
REMARK  124  A    between atoms: _300  and  _303
REMARK  125  A    between atoms: _303  and  _304
REMARK  126  A    between atoms: _309  and  _311
REMARK  127  A    between atoms: _311  and  _312
REMARK  128  A    between atoms: _311  and  _314
REMARK  129  A    between atoms: _314  and  _315
REMARK                            x       y       z     vdW  Elec       q    Type
REMARK                         _______ _______ _______ _____ _____    ______ ____
ROOT
ATOM      1  C   PRO A   4     -47.937  25.252  11.130  0.00  0.00    +0.241 C 
ATOM      2  N   SER A   5     -47.561  24.762  12.303  0.00  0.00    -0.295 N 
ATOM      3  H   SER A   5     -46.889  23.968  12.317  0.00  0.00    +0.150 HD
ATOM      4  O   PRO A   4     -48.622  26.280  11.024  0.00  0.00    -0.273 OA
ENDROOT
BRANCH   1   8
ATOM      5  C   ARG A   3     -47.204  22.162  10.723  0.00  0.00    +0.248 C 
ATOM      6  O   ARG A   3     -46.510  22.511  11.676  0.00  0.00    -0.273 OA
ATOM      7  N   PRO A   4     -47.787  23.072   9.876  0.00  0.00    -0.271 N 
ATOM      8  CA  PRO A   4     -47.448  24.502   9.875  0.00  0.00    +0.152 C 
ATOM      9  CB  PRO A   4     -48.181  25.043   8.620  0.00  0.00    +0.031 C 
ATOM     10  CG  PRO A   4     -49.091  24.071   8.235  0.00  0.00    +0.024 C 
ATOM     11  CD  PRO A   4     -48.907  22.789   8.945  0.00  0.00    +0.094 C 
BRANCH   5  12
ATOM     12  CA  ARG A   3     -47.466  20.662  10.508  0.00  0.00    +0.171 C 
BRANCH  12  14
ATOM     13  C   ARG A   2     -47.035  19.380   8.446  0.00  0.00    +0.245 C 
ATOM     14  N   ARG A   3     -46.573  20.083   9.488  0.00  0.00    -0.293 N 
ATOM     15  H   ARG A   3     -45.547  20.226   9.581  0.00  0.00    +0.150 HD
ATOM     16  O   ARG A   2     -48.237  19.155   8.288  0.00  0.00    -0.273 OA
BRANCH  13  17
ATOM     17  CA  ARG A   2     -46.032  18.895   7.380  0.00  0.00    +0.171 C 
BRANCH  17  19
ATOM     18  C   SER A   1     -45.324  21.174   6.859  0.00  0.00    +0.241 C 
ATOM     19  N   ARG A   2     -45.017  19.907   7.050  0.00  0.00    -0.294 N 
ATOM     20  H   ARG A   2     -44.023  19.613   6.965  0.00  0.00    +0.150 HD
ATOM     21  O   SER A   1     -46.460  21.570   6.862  0.00  0.00    -0.274 OA
BRANCH  18  22
ATOM     22  CA  SER A   1     -44.154  22.170   6.704  0.00  0.00    +0.174 C 
BRANCH  22  23
ATOM     23  N   SER A   1     -44.442  23.202   5.689  0.00  0.00    -0.236 NA
ATOM     24  H   SER A   1     -44.399  24.209   5.946  0.00  0.00    +0.142 HD
ENDBRANCH  22  23
BRANCH  22  25
ATOM     25  CB  SER A   1     -43.832  22.792   8.055  0.00  0.00    +0.163 C 
BRANCH  25  26
ATOM     26  OG  SER A   1     -42.648  23.569   8.007  0.00  0.00    -0.380 OA
ATOM     27  H   SER A   1     -42.760  24.298   7.347  0.00  0.00    +0.211 HD
ENDBRANCH  25  26
ENDBRANCH  22  25
ENDBRANCH  18  22
ENDBRANCH  17  19
BRANCH  17  28
ATOM     28  CB  ARG A   2     -45.405  17.507   7.731  0.00  0.00    +0.001 C 
ATOM     29  CG  ARG A   2     -44.877  17.347   9.155  0.00  0.00    +0.014 C 
BRANCH  29  30
ATOM     30  CD  ARG A   2     -43.994  16.048   9.413  0.00  0.00    +0.200 C 
BRANCH  30  31
ATOM     31  NE  ARG A   2     -43.458  16.033  10.791  0.00  0.00    -0.261 N 
ATOM     32  CZ  ARG A   2     -42.958  14.967  11.439  0.00  0.00    +0.342 C 
ATOM     33  NH2 ARG A   2     -42.502  15.096  12.694  0.00  0.00    -0.292 N 
ATOM     34 HH21 ARG A   2     -42.115  14.270  13.194  0.00  0.00    +0.255 HD
ATOM     35 HH22 ARG A   2     -42.535  16.022  13.167  0.00  0.00    +0.255 HD
ATOM     36  NH1 ARG A   2     -42.891  13.770  10.847  0.00  0.00    -0.292 N 
ATOM     37 HH11 ARG A   2     -42.501  12.956  11.363  0.00  0.00    +0.255 HD
ATOM     38 HH12 ARG A   2     -43.229  13.653   9.870  0.00  0.00    +0.255 HD
ATOM     39  HE  ARG A   2     -43.469  16.935  11.309  0.00  0.00    +0.259 HD
ENDBRANCH  30  31
ENDBRANCH  29  30
ENDBRANCH  17  28
ENDBRANCH  13  17
ENDBRANCH  12  14
BRANCH  12  40
ATOM     40  CB  ARG A   3     -47.301  19.877  11.837  0.00  0.00    +0.001 C 
ATOM     41  CG  ARG A   3     -48.463  19.982  12.793  0.00  0.00    +0.014 C 
BRANCH  41  42
ATOM     42  CD  ARG A   3     -48.312  19.255  14.147  0.00  0.00    +0.200 C 
BRANCH  42  43
ATOM     43  NE  ARG A   3     -47.280  19.834  15.021  0.00  0.00    -0.261 N 
ATOM     44  CZ  ARG A   3     -47.420  20.893  15.837  0.00  0.00    +0.342 C 
ATOM     45  NH2 ARG A   3     -46.379  21.278  16.573  0.00  0.00    -0.292 N 
ATOM     46 HH21 ARG A   3     -46.467  22.095  17.211  0.00  0.00    +0.255 HD
ATOM     47 HH22 ARG A   3     -45.478  20.762  16.510  0.00  0.00    +0.255 HD
ATOM     48  NH1 ARG A   3     -48.560  21.585  15.920  0.00  0.00    -0.292 N 
ATOM     49 HH11 ARG A   3     -48.629  22.399  16.564  0.00  0.00    +0.255 HD
ATOM     50 HH12 ARG A   3     -49.379  21.310  15.341  0.00  0.00    +0.255 HD
ATOM     51  HE  ARG A   3     -46.346  19.377  15.006  0.00  0.00    +0.259 HD
ENDBRANCH  42  43
ENDBRANCH  41  42
ENDBRANCH  12  40
ENDBRANCH   5  12
ENDBRANCH   1   8
BRANCH   2  52
ATOM     52  CA  SER A   5     -48.050  25.289  13.583  0.00  0.00    +0.178 C 
BRANCH  52  53
ATOM     53  C   SER A   5     -47.033  24.959  14.624  0.00  0.00    +0.243 C 
ATOM     54  N   SER A   6     -46.839  25.823  15.630  0.00  0.00    -0.295 N 
ATOM     55  H   SER A   6     -47.396  26.700  15.661  0.00  0.00    +0.150 HD
ATOM     56  O   SER A   5     -46.456  23.890  14.553  0.00  0.00    -0.273 OA
BRANCH  54  57
ATOM     57  CA  SER A   6     -45.850  25.556  16.696  0.00  0.00    +0.178 C 
BRANCH  57  58
ATOM     58  C   SER A   6     -46.256  26.218  18.027  0.00  0.00    +0.243 C 
ATOM     59  N   TRP A   7     -45.575  25.893  19.126  0.00  0.00    -0.297 N 
ATOM     60  H   TRP A   7     -44.862  25.137  19.084  0.00  0.00    +0.150 HD
ATOM     61  O   SER A   6     -47.167  27.032  18.036  0.00  0.00    -0.273 OA
BRANCH  59  62
ATOM     62  CA  TRP A   7     -45.819  26.591  20.398  0.00  0.00    +0.153 C 
BRANCH  62  63
ATOM     63  C   TRP A   7     -45.563  28.070  20.187  0.00  0.00    +0.241 C 
ATOM     64  O   TRP A   7     -46.049  28.886  20.931  0.00  0.00    -0.273 OA
ATOM     65  N   ARG A   8     -44.800  28.444  19.167  0.00  0.00    -0.298 N 
ATOM     66  H   ARG A   8     -44.434  27.742  18.492  0.00  0.00    +0.150 HD
BRANCH  65  67
ATOM     67  CA  ARG A   8     -44.481  29.883  19.011  0.00  0.00    +0.137 C 
BRANCH  67  68
ATOM     68  C   ARG A   8     -45.571  30.631  18.259  0.00  0.00    +0.227 C 
ATOM     69  O   ARG A   8     -45.736  31.844  18.424  0.00  0.00    -0.286 OA
ENDBRANCH  67  68
BRANCH  67  70
ATOM     70  CB  ARG A   8     -43.167  30.117  18.278  0.00  0.00    +0.031 C 
BRANCH  70  71
ATOM     71  CG  ARG A   8     -42.012  29.338  18.821  0.00  0.00    +0.045 C 
BRANCH  71  72
ATOM     72  CD  ARG A   8     -40.686  29.887  18.212  0.00  0.00    +0.174 C 
BRANCH  72  73
ATOM     73  NE  ARG A   8     -40.545  31.295  18.511  0.00  0.00    -0.265 N 
ATOM     74  HE  ARG A   8     -40.770  31.603  19.479  0.00  0.00    +0.259 HD
ATOM     75  CZ  ARG A   8     -40.154  32.221  17.655  0.00  0.00    +0.342 C 
ATOM     76  NH2 ARG A   8     -40.048  33.471  18.078  0.00  0.00    -0.292 N 
ATOM     77 HH21 ARG A   8     -40.271  33.706  19.066  0.00  0.00    +0.255 HD
ATOM     78 HH22 ARG A   8     -39.742  34.218  17.422  0.00  0.00    +0.255 HD
ATOM     79  NH1 ARG A   8     -39.888  31.906  16.383  0.00  0.00    -0.292 N 
ATOM     80 HH11 ARG A   8     -39.988  30.923  16.059  0.00  0.00    +0.255 HD
ATOM     81 HH12 ARG A   8     -39.581  32.644  15.718  0.00  0.00    +0.255 HD
ENDBRANCH  72  73
ENDBRANCH  71  72
ENDBRANCH  70  71
ENDBRANCH  67  70
ENDBRANCH  65  67
ENDBRANCH  62  63
BRANCH  62  82
ATOM     82  CB  TRP A   7     -44.932  26.043  21.548  0.00  0.00    +0.057 C 
BRANCH  82  83
ATOM     83  CG  TRP A   7     -43.394  26.335  21.325  0.00  0.00    -0.002 A 
ATOM     84  CD2 TRP A   7     -42.659  27.523  21.735  0.00  0.00    +0.013 A 
ATOM     85  CE3 TRP A   7     -43.013  28.700  22.441  0.00  0.00    +0.001 A 
ATOM     86  CZ3 TRP A   7     -42.044  29.646  22.679  0.00  0.00    +0.000 A 
ATOM     87  CH2 TRP A   7     -40.739  29.465  22.240  0.00  0.00    +0.001 A 
ATOM     88  CZ2 TRP A   7     -40.349  28.316  21.571  0.00  0.00    +0.017 A 
ATOM     89  CE2 TRP A   7     -41.321  27.356  21.329  0.00  0.00    +0.056 A 
ATOM     90  NE1 TRP A   7     -41.235  26.147  20.688  0.00  0.00    -0.352 N 
ATOM     91  HE1 TRP A   7     -40.376  25.752  20.254  0.00  0.00    +0.166 HD
ATOM     92  CD1 TRP A   7     -42.492  25.530  20.712  0.00  0.00    +0.068 A 
ENDBRANCH  82  83
ENDBRANCH  62  82
ENDBRANCH  59  62
ENDBRANCH  57  58
BRANCH  57  93
ATOM     93  CB  SER A   6     -44.450  26.077  16.271  0.00  0.00    +0.166 C 
BRANCH  93  94
ATOM     94  OG  SER A   6     -44.424  27.522  16.237  0.00  0.00    -0.380 OA
ATOM     95  H   SER A   6     -43.523  27.828  15.964  0.00  0.00    +0.211 HD
ENDBRANCH  93  94
ENDBRANCH  57  93
ENDBRANCH  54  57
ENDBRANCH  52  53
BRANCH  52  96
ATOM     96  CB  SER A   5     -49.309  24.516  13.965  0.00  0.00    +0.166 C 
BRANCH  96  97
ATOM     97  OG  SER A   5     -50.046  25.235  14.953  0.00  0.00    -0.380 OA
ATOM     98  H   SER A   5     -50.305  26.120  14.591  0.00  0.00    +0.211 HD
ENDBRANCH  96  97
ENDBRANCH  52  96
ENDBRANCH   2  52
TORSDOF 33
REMARK  Name = ../refined-set-2016/2xp7/2xp7_pocket.pdb
REMARK  129 active torsions:
REMARK  status: ('A' for Active; 'I' for Inactive)
REMARK    1  A    between atoms: _1  and  _3
REMARK    2  A    between atoms: _3  and  _4
REMARK    3  A    between atoms: _3  and  _6
REMARK    4  A    between atoms: _6  and  _7
REMARK    5  A    between atoms: _12  and  _14
REMARK    6  A    between atoms: _14  and  _15
REMARK    7  A    between atoms: _14  and  _17
REMARK    8  A    between atoms: _17  and  _18
REMARK    9  A    between atoms: _21  and  _23
REMARK   10  A    between atoms: _23  and  _24
REMARK   11  A    between atoms: _23  and  _26
REMARK   12  A    between atoms: _26  and  _27
REMARK   13  A    between atoms: _27  and  _28
REMARK   14  A    between atoms: _28  and  _29
REMARK   15  A    between atoms: _29  and  _30
REMARK   16  A    between atoms: _34  and  _36
REMARK   17  A    between atoms: _36  and  _37
REMARK   18  A    between atoms: _36  and  _39
REMARK   19  A    between atoms: _39  and  _40
REMARK   20  A    between atoms: _42  and  _44
REMARK   21  A    between atoms: _44  and  _45
REMARK   22  A    between atoms: _44  and  _47
REMARK   23  A    between atoms: _48  and  _49
REMARK   24  A    between atoms: _49  and  _50
REMARK   25  A    between atoms: _59  and  _61
REMARK   26  A    between atoms: _61  and  _62
REMARK   27  A    between atoms: _61  and  _64
REMARK   28  A    between atoms: _65  and  _66
REMARK   29  A    between atoms: _66  and  _67
REMARK   30  A    between atoms: _77  and  _78
REMARK   31  A    between atoms: _83  and  _85
REMARK   32  A    between atoms: _85  and  _86
REMARK   33  A    between atoms: _85  and  _88
REMARK   34  A    between atoms: _88  and  _89
REMARK   35  A    between atoms: _91  and  _93
REMARK   36  A    between atoms: _93  and  _94
REMARK   37  A    between atoms: _93  and  _96
REMARK   38  A    between atoms: _96  and  _97
REMARK   39  A    between atoms: _99  and  _101
REMARK   40  A    between atoms: _101  and  _102
REMARK   41  A    between atoms: _101  and  _104
REMARK   42  A    between atoms: _104  and  _105
REMARK   43  A    between atoms: _115  and  _117
REMARK   44  A    between atoms: _117  and  _118
REMARK   45  A    between atoms: _117  and  _120
REMARK   46  A    between atoms: _120  and  _121
REMARK   47  A    between atoms: _121  and  _122
REMARK   48  A    between atoms: _122  and  _123
REMARK   49  A    between atoms: _132  and  _134
REMARK   50  A    between atoms: _134  and  _135
REMARK   51  A    between atoms: _134  and  _137
REMARK   52  A    between atoms: _137  and  _138
REMARK   53  A    between atoms: _140  and  _142
REMARK   54  A    between atoms: _142  and  _143
REMARK   55  A    between atoms: _142  and  _145
REMARK   56  A    between atoms: _145  and  _146
REMARK   57  A    between atoms: _149  and  _151
REMARK   58  A    between atoms: _151  and  _152
REMARK   59  A    between atoms: _151  and  _154
REMARK   60  A    between atoms: _156  and  _158
REMARK   61  A    between atoms: _158  and  _159
REMARK   62  A    between atoms: _158  and  _161
REMARK   63  A    between atoms: _161  and  _162
REMARK   64  A    between atoms: _164  and  _166
REMARK   65  A    between atoms: _166  and  _167
REMARK   66  A    between atoms: _166  and  _169
REMARK   67  A    between atoms: _169  and  _170
REMARK   68  A    between atoms: _172  and  _174
REMARK   69  A    between atoms: _174  and  _175
REMARK   70  A    between atoms: _178  and  _180
REMARK   71  A    between atoms: _180  and  _181
REMARK   72  A    between atoms: _183  and  _185
REMARK   73  A    between atoms: _185  and  _186
REMARK   74  A    between atoms: _185  and  _188
REMARK   75  A    between atoms: _188  and  _189
REMARK   76  A    between atoms: _192  and  _194
REMARK   77  A    between atoms: _194  and  _195
REMARK   78  A    between atoms: _194  and  _197
REMARK   79  A    between atoms: _197  and  _198
REMARK   80  A    between atoms: _204  and  _206
REMARK   81  A    between atoms: _206  and  _207
REMARK   82  A    between atoms: _206  and  _209
REMARK   83  A    between atoms: _209  and  _210
REMARK   84  A    between atoms: _210  and  _211
REMARK   85  A    between atoms: _216  and  _218
REMARK   86  A    between atoms: _218  and  _219
REMARK   87  A    between atoms: _218  and  _221
REMARK   88  A    between atoms: _221  and  _222
REMARK   89  A    between atoms: _222  and  _223
REMARK   90  A    between atoms: _225  and  _227
REMARK   91  A    between atoms: _227  and  _228
REMARK   92  A    between atoms: _227  and  _230
REMARK   93  A    between atoms: _230  and  _231
REMARK   94  A    between atoms: _231  and  _232
REMARK   95  A    between atoms: _237  and  _239
REMARK   96  A    between atoms: _239  and  _240
REMARK   97  A    between atoms: _239  and  _242
REMARK   98  A    between atoms: _242  and  _243
REMARK   99  A    between atoms: _249  and  _251
REMARK  100  A    between atoms: _251  and  _252
REMARK  101  A    between atoms: _251  and  _254
REMARK  102  A    between atoms: _254  and  _255
REMARK  103  A    between atoms: _255  and  _256
REMARK  104  A    between atoms: _259  and  _261
REMARK  105  A    between atoms: _261  and  _262
REMARK  106  A    between atoms: _261  and  _264
REMARK  107  A    between atoms: _264  and  _265
REMARK  108  A    between atoms: _267  and  _269
REMARK  109  A    between atoms: _269  and  _270
REMARK  110  A    between atoms: _269  and  _272
REMARK  111  A    between atoms: _272  and  _273
REMARK  112  A    between atoms: _276  and  _278
REMARK  113  A    between atoms: _278  and  _279
REMARK  114  A    between atoms: _278  and  _281
REMARK  115  A    between atoms: _281  and  _282
REMARK  116  A    between atoms: _285  and  _287
REMARK  117  A    between atoms: _287  and  _288
REMARK  118  A    between atoms: _287  and  _290
REMARK  119  A    between atoms: _290  and  _291
REMARK  120  A    between atoms: _293  and  _295
REMARK  121  A    between atoms: _295  and  _296
REMARK  122  A    between atoms: _298  and  _300
REMARK  123  A    between atoms: _300  and  _301
REMARK  124  A    between atoms: _300  and  _303
REMARK  125  A    between atoms: _303  and  _304
REMARK  126  A    between atoms: _309  and  _311
REMARK  127  A    between atoms: _311  and  _312
REMARK  128  A    between atoms: _311  and  _314
REMARK  129  A    between atoms: _314  and  _315
REMARK                            x       y       z     vdW  Elec       q    Type
REMARK                         _______ _______ _______ _____ _____    ______ ____
ROOT
ATOM      1  C   CYS A   3     -40.409  22.438  19.537  0.00  0.00    +0.242 C 
ATOM      2  N   SER A   4     -41.210  21.575  20.154  0.00  0.00    -0.295 N 
ATOM      3  H   SER A   4     -41.613  20.775  19.626  0.00  0.00    +0.150 HD
ATOM      4  O   CYS A   3     -39.855  23.371  20.137  0.00  0.00    -0.273 OA
ENDROOT
BRANCH   2   5
ATOM      5  CA  SER A   4     -41.521  21.740  21.540  0.00  0.00    +0.178 C 
BRANCH   5   6
ATOM      6  C   SER A   4     -40.310  21.365  22.396  0.00  0.00    +0.243 C 
ATOM      7  O   SER A   4     -40.284  21.708  23.609  0.00  0.00    -0.273 OA
ATOM      8  N   SER A   5     -39.307  20.724  21.766  0.00  0.00    -0.295 N 
ATOM      9  H   SER A   5     -39.465  20.373  20.800  0.00  0.00    +0.150 HD
BRANCH   8  10
ATOM     10  CA  SER A   5     -37.993  20.502  22.397  0.00  0.00    +0.178 C 
BRANCH  10  11
ATOM     11  C   SER A   5     -37.180  21.789  22.665  0.00  0.00    +0.243 C 
ATOM     12  O   SER A   5     -36.150  21.756  23.338  0.00  0.00    -0.273 OA
ATOM     13  N   ALA A   6     -37.622  22.922  22.114  0.00  0.00    -0.298 N 
ATOM     14  H   ALA A   6     -38.359  22.859  21.383  0.00  0.00    +0.150 HD
BRANCH  13  15
ATOM     15  CA  ALA A   6     -37.135  24.221  22.476  0.00  0.00    +0.137 C 
ATOM     16  CB  ALA A   6     -38.069  25.322  21.912  0.00  0.00    +0.030 C 
BRANCH  15  17
ATOM     17  C   ALA A   6     -37.085  24.351  24.000  0.00  0.00    +0.227 C 
ATOM     18  O   ALA A   6     -36.143  24.961  24.518  0.00  0.00    -0.286 OA
ENDBRANCH  15  17
ENDBRANCH  13  15
ENDBRANCH  10  11
BRANCH  10  19
ATOM     19  CB  SER A   5     -37.165  19.563  21.540  0.00  0.00    +0.166 C 
BRANCH  19  20
ATOM     20  OG  SER A   5     -36.781  20.214  20.340  0.00  0.00    -0.380 OA
ATOM     21  H   SER A   5     -36.243  21.016  20.559  0.00  0.00    +0.211 HD
ENDBRANCH  19  20
ENDBRANCH  10  19
ENDBRANCH   8  10
ENDBRANCH   5   6
BRANCH   5  22
ATOM     22  CB  SER A   4     -42.765  20.934  21.937  0.00  0.00    +0.166 C 
BRANCH  22  23
ATOM     23  OG  SER A   4     -42.541  19.567  21.674  0.00  0.00    -0.380 OA
ATOM     24  H   SER A   4     -43.344  19.047  21.930  0.00  0.00    +0.211 HD
ENDBRANCH  22  23
ENDBRANCH   5  22
ENDBRANCH   2   5
BRANCH   1  25
ATOM     25  CA  CYS A   3     -40.227  22.281  18.032  0.00  0.00    +0.160 C 
BRANCH  25  27
ATOM     26  C   ASP A   2     -40.906  24.248  16.809  0.00  0.00    +0.241 C 
ATOM     27  N   CYS A   3     -39.976  23.619  17.508  0.00  0.00    -0.296 N 
ATOM     28  H   CYS A   3     -39.061  24.081  17.685  0.00  0.00    +0.150 HD
ATOM     29  O   ASP A   2     -41.988  23.708  16.556  0.00  0.00    -0.273 OA
BRANCH  26  30
ATOM     30  CA  ASP A   2     -40.593  25.687  16.356  0.00  0.00    +0.160 C 
BRANCH  30  33
ATOM     31  C   SER A   1     -38.593  26.459  17.665  0.00  0.00    +0.241 C 
ATOM     32  O   SER A   1     -39.261  26.685  18.720  0.00  0.00    -0.274 OA
ATOM     33  N   ASP A   2     -39.144  26.006  16.518  0.00  0.00    -0.297 N 
ATOM     34  H   ASP A   2     -38.520  25.871  15.697  0.00  0.00    +0.150 HD
BRANCH  31  35
ATOM     35  CA  SER A   1     -37.063  26.730  17.636  0.00  0.00    +0.174 C 
BRANCH  35  36
ATOM     36  N   SER A   1     -36.746  28.002  18.270  0.00  0.00    -0.236 NA
ATOM     37  H   SER A   1     -36.339  28.012  19.227  0.00  0.00    +0.142 HD
ENDBRANCH  35  36
BRANCH  35  38
ATOM     38  CB  SER A   1     -36.378  25.596  18.354  0.00  0.00    +0.163 C 
BRANCH  38  39
ATOM     39  OG  SER A   1     -36.734  24.341  17.763  0.00  0.00    -0.380 OA
ATOM     40  H   SER A   1     -36.276  23.608  18.246  0.00  0.00    +0.211 HD
ENDBRANCH  38  39
ENDBRANCH  35  38
ENDBRANCH  31  35
ENDBRANCH  30  33
BRANCH  30  41
ATOM     41  CB  ASP A   2     -41.028  25.907  14.916  0.00  0.00    +0.143 C 
BRANCH  41  42
ATOM     42  CG  ASP A   2     -41.317  27.381  14.605  0.00  0.00    +0.367 C 
ATOM     43  OD2 ASP A   2     -42.099  27.972  15.366  0.00  0.00    -0.246 OA
ATOM     44  OD1 ASP A   2     -40.779  27.965  13.614  0.00  0.00    -0.246 OA
ENDBRANCH  41  42
ENDBRANCH  30  41
ENDBRANCH  26  30
ENDBRANCH  25  27
BRANCH  25  45
ATOM     45  CB  CYS A   3     -39.051  21.360  17.683  0.00  0.00    +0.098 C 
ATOM     46  SG  CYS A   3     -39.120  19.756  18.372  0.00  0.00    -0.080 S 
ENDBRANCH  25  45
ENDBRANCH   1  25
TORSDOF 21
REMARK  Name = ../refined-set-2016/2xp7/2xp7_pocket.pdb
REMARK  129 active torsions:
REMARK  status: ('A' for Active; 'I' for Inactive)
REMARK    1  A    between atoms: _1  and  _3
REMARK    2  A    between atoms: _3  and  _4
REMARK    3  A    between atoms: _3  and  _6
REMARK    4  A    between atoms: _6  and  _7
REMARK    5  A    between atoms: _12  and  _14
REMARK    6  A    between atoms: _14  and  _15
REMARK    7  A    between atoms: _14  and  _17
REMARK    8  A    between atoms: _17  and  _18
REMARK    9  A    between atoms: _21  and  _23
REMARK   10  A    between atoms: _23  and  _24
REMARK   11  A    between atoms: _23  and  _26
REMARK   12  A    between atoms: _26  and  _27
REMARK   13  A    between atoms: _27  and  _28
REMARK   14  A    between atoms: _28  and  _29
REMARK   15  A    between atoms: _29  and  _30
REMARK   16  A    between atoms: _34  and  _36
REMARK   17  A    between atoms: _36  and  _37
REMARK   18  A    between atoms: _36  and  _39
REMARK   19  A    between atoms: _39  and  _40
REMARK   20  A    between atoms: _42  and  _44
REMARK   21  A    between atoms: _44  and  _45
REMARK   22  A    between atoms: _44  and  _47
REMARK   23  A    between atoms: _48  and  _49
REMARK   24  A    between atoms: _49  and  _50
REMARK   25  A    between atoms: _59  and  _61
REMARK   26  A    between atoms: _61  and  _62
REMARK   27  A    between atoms: _61  and  _64
REMARK   28  A    between atoms: _65  and  _66
REMARK   29  A    between atoms: _66  and  _67
REMARK   30  A    between atoms: _77  and  _78
REMARK   31  A    between atoms: _83  and  _85
REMARK   32  A    between atoms: _85  and  _86
REMARK   33  A    between atoms: _85  and  _88
REMARK   34  A    between atoms: _88  and  _89
REMARK   35  A    between atoms: _91  and  _93
REMARK   36  A    between atoms: _93  and  _94
REMARK   37  A    between atoms: _93  and  _96
REMARK   38  A    between atoms: _96  and  _97
REMARK   39  A    between atoms: _99  and  _101
REMARK   40  A    between atoms: _101  and  _102
REMARK   41  A    between atoms: _101  and  _104
REMARK   42  A    between atoms: _104  and  _105
REMARK   43  A    between atoms: _115  and  _117
REMARK   44  A    between atoms: _117  and  _118
REMARK   45  A    between atoms: _117  and  _120
REMARK   46  A    between atoms: _120  and  _121
REMARK   47  A    between atoms: _121  and  _122
REMARK   48  A    between atoms: _122  and  _123
REMARK   49  A    between atoms: _132  and  _134
REMARK   50  A    between atoms: _134  and  _135
REMARK   51  A    between atoms: _134  and  _137
REMARK   52  A    between atoms: _137  and  _138
REMARK   53  A    between atoms: _140  and  _142
REMARK   54  A    between atoms: _142  and  _143
REMARK   55  A    between atoms: _142  and  _145
REMARK   56  A    between atoms: _145  and  _146
REMARK   57  A    between atoms: _149  and  _151
REMARK   58  A    between atoms: _151  and  _152
REMARK   59  A    between atoms: _151  and  _154
REMARK   60  A    between atoms: _156  and  _158
REMARK   61  A    between atoms: _158  and  _159
REMARK   62  A    between atoms: _158  and  _161
REMARK   63  A    between atoms: _161  and  _162
REMARK   64  A    between atoms: _164  and  _166
REMARK   65  A    between atoms: _166  and  _167
REMARK   66  A    between atoms: _166  and  _169
REMARK   67  A    between atoms: _169  and  _170
REMARK   68  A    between atoms: _172  and  _174
REMARK   69  A    between atoms: _174  and  _175
REMARK   70  A    between atoms: _178  and  _180
REMARK   71  A    between atoms: _180  and  _181
REMARK   72  A    between atoms: _183  and  _185
REMARK   73  A    between atoms: _185  and  _186
REMARK   74  A    between atoms: _185  and  _188
REMARK   75  A    between atoms: _188  and  _189
REMARK   76  A    between atoms: _192  and  _194
REMARK   77  A    between atoms: _194  and  _195
REMARK   78  A    between atoms: _194  and  _197
REMARK   79  A    between atoms: _197  and  _198
REMARK   80  A    between atoms: _204  and  _206
REMARK   81  A    between atoms: _206  and  _207
REMARK   82  A    between atoms: _206  and  _209
REMARK   83  A    between atoms: _209  and  _210
REMARK   84  A    between atoms: _210  and  _211
REMARK   85  A    between atoms: _216  and  _218
REMARK   86  A    between atoms: _218  and  _219
REMARK   87  A    between atoms: _218  and  _221
REMARK   88  A    between atoms: _221  and  _222
REMARK   89  A    between atoms: _222  and  _223
REMARK   90  A    between atoms: _225  and  _227
REMARK   91  A    between atoms: _227  and  _228
REMARK   92  A    between atoms: _227  and  _230
REMARK   93  A    between atoms: _230  and  _231
REMARK   94  A    between atoms: _231  and  _232
REMARK   95  A    between atoms: _237  and  _239
REMARK   96  A    between atoms: _239  and  _240
REMARK   97  A    between atoms: _239  and  _242
REMARK   98  A    between atoms: _242  and  _243
REMARK   99  A    between atoms: _249  and  _251
REMARK  100  A    between atoms: _251  and  _252
REMARK  101  A    between atoms: _251  and  _254
REMARK  102  A    between atoms: _254  and  _255
REMARK  103  A    between atoms: _255  and  _256
REMARK  104  A    between atoms: _259  and  _261
REMARK  105  A    between atoms: _261  and  _262
REMARK  106  A    between atoms: _261  and  _264
REMARK  107  A    between atoms: _264  and  _265
REMARK  108  A    between atoms: _267  and  _269
REMARK  109  A    between atoms: _269  and  _270
REMARK  110  A    between atoms: _269  and  _272
REMARK  111  A    between atoms: _272  and  _273
REMARK  112  A    between atoms: _276  and  _278
REMARK  113  A    between atoms: _278  and  _279
REMARK  114  A    between atoms: _278  and  _281
REMARK  115  A    between atoms: _281  and  _282
REMARK  116  A    between atoms: _285  and  _287
REMARK  117  A    between atoms: _287  and  _288
REMARK  118  A    between atoms: _287  and  _290
REMARK  119  A    between atoms: _290  and  _291
REMARK  120  A    between atoms: _293  and  _295
REMARK  121  A    between atoms: _295  and  _296
REMARK  122  A    between atoms: _298  and  _300
REMARK  123  A    between atoms: _300  and  _301
REMARK  124  A    between atoms: _300  and  _303
REMARK  125  A    between atoms: _303  and  _304
REMARK  126  A    between atoms: _309  and  _311
REMARK  127  A    between atoms: _311  and  _312
REMARK  128  A    between atoms: _311  and  _314
REMARK  129  A    between atoms: _314  and  _315
REMARK                            x       y       z     vdW  Elec       q    Type
REMARK                         _______ _______ _______ _____ _____    ______ ____
ROOT
ATOM      1  CA  GLY A   1     -33.270  21.750  21.646  0.00  0.00    +0.156 C 
ENDROOT
BRANCH   1   2
ATOM      2  N   GLY A   1     -33.432  22.446  22.927  0.00  0.00    -0.238 NA
ATOM      3  H   GLY A   1     -34.365  22.474  23.386  0.00  0.00    +0.142 HD
ENDBRANCH   1   2
BRANCH   1   4
ATOM      4  C   GLY A   1     -32.999  20.247  21.819  0.00  0.00    +0.226 C 
ATOM      5  O   GLY A   1     -33.013  19.500  20.862  0.00  0.00    -0.287 OA
ENDBRANCH   1   4
TORSDOF 2
REMARK  Name = ../refined-set-2016/2xp7/2xp7_pocket.pdb
REMARK  129 active torsions:
REMARK  status: ('A' for Active; 'I' for Inactive)
REMARK    1  A    between atoms: _1  and  _3
REMARK    2  A    between atoms: _3  and  _4
REMARK    3  A    between atoms: _3  and  _6
REMARK    4  A    between atoms: _6  and  _7
REMARK    5  A    between atoms: _12  and  _14
REMARK    6  A    between atoms: _14  and  _15
REMARK    7  A    between atoms: _14  and  _17
REMARK    8  A    between atoms: _17  and  _18
REMARK    9  A    between atoms: _21  and  _23
REMARK   10  A    between atoms: _23  and  _24
REMARK   11  A    between atoms: _23  and  _26
REMARK   12  A    between atoms: _26  and  _27
REMARK   13  A    between atoms: _27  and  _28
REMARK   14  A    between atoms: _28  and  _29
REMARK   15  A    between atoms: _29  and  _30
REMARK   16  A    between atoms: _34  and  _36
REMARK   17  A    between atoms: _36  and  _37
REMARK   18  A    between atoms: _36  and  _39
REMARK   19  A    between atoms: _39  and  _40
REMARK   20  A    between atoms: _42  and  _44
REMARK   21  A    between atoms: _44  and  _45
REMARK   22  A    between atoms: _44  and  _47
REMARK   23  A    between atoms: _48  and  _49
REMARK   24  A    between atoms: _49  and  _50
REMARK   25  A    between atoms: _59  and  _61
REMARK   26  A    between atoms: _61  and  _62
REMARK   27  A    between atoms: _61  and  _64
REMARK   28  A    between atoms: _65  and  _66
REMARK   29  A    between atoms: _66  and  _67
REMARK   30  A    between atoms: _77  and  _78
REMARK   31  A    between atoms: _83  and  _85
REMARK   32  A    between atoms: _85  and  _86
REMARK   33  A    between atoms: _85  and  _88
REMARK   34  A    between atoms: _88  and  _89
REMARK   35  A    between atoms: _91  and  _93
REMARK   36  A    between atoms: _93  and  _94
REMARK   37  A    between atoms: _93  and  _96
REMARK   38  A    between atoms: _96  and  _97
REMARK   39  A    between atoms: _99  and  _101
REMARK   40  A    between atoms: _101  and  _102
REMARK   41  A    between atoms: _101  and  _104
REMARK   42  A    between atoms: _104  and  _105
REMARK   43  A    between atoms: _115  and  _117
REMARK   44  A    between atoms: _117  and  _118
REMARK   45  A    between atoms: _117  and  _120
REMARK   46  A    between atoms: _120  and  _121
REMARK   47  A    between atoms: _121  and  _122
REMARK   48  A    between atoms: _122  and  _123
REMARK   49  A    between atoms: _132  and  _134
REMARK   50  A    between atoms: _134  and  _135
REMARK   51  A    between atoms: _134  and  _137
REMARK   52  A    between atoms: _137  and  _138
REMARK   53  A    between atoms: _140  and  _142
REMARK   54  A    between atoms: _142  and  _143
REMARK   55  A    between atoms: _142  and  _145
REMARK   56  A    between atoms: _145  and  _146
REMARK   57  A    between atoms: _149  and  _151
REMARK   58  A    between atoms: _151  and  _152
REMARK   59  A    between atoms: _151  and  _154
REMARK   60  A    between atoms: _156  and  _158
REMARK   61  A    between atoms: _158  and  _159
REMARK   62  A    between atoms: _158  and  _161
REMARK   63  A    between atoms: _161  and  _162
REMARK   64  A    between atoms: _164  and  _166
REMARK   65  A    between atoms: _166  and  _167
REMARK   66  A    between atoms: _166  and  _169
REMARK   67  A    between atoms: _169  and  _170
REMARK   68  A    between atoms: _172  and  _174
REMARK   69  A    between atoms: _174  and  _175
REMARK   70  A    between atoms: _178  and  _180
REMARK   71  A    between atoms: _180  and  _181
REMARK   72  A    between atoms: _183  and  _185
REMARK   73  A    between atoms: _185  and  _186
REMARK   74  A    between atoms: _185  and  _188
REMARK   75  A    between atoms: _188  and  _189
REMARK   76  A    between atoms: _192  and  _194
REMARK   77  A    between atoms: _194  and  _195
REMARK   78  A    between atoms: _194  and  _197
REMARK   79  A    between atoms: _197  and  _198
REMARK   80  A    between atoms: _204  and  _206
REMARK   81  A    between atoms: _206  and  _207
REMARK   82  A    between atoms: _206  and  _209
REMARK   83  A    between atoms: _209  and  _210
REMARK   84  A    between atoms: _210  and  _211
REMARK   85  A    between atoms: _216  and  _218
REMARK   86  A    between atoms: _218  and  _219
REMARK   87  A    between atoms: _218  and  _221
REMARK   88  A    between atoms: _221  and  _222
REMARK   89  A    between atoms: _222  and  _223
REMARK   90  A    between atoms: _225  and  _227
REMARK   91  A    between atoms: _227  and  _228
REMARK   92  A    between atoms: _227  and  _230
REMARK   93  A    between atoms: _230  and  _231
REMARK   94  A    between atoms: _231  and  _232
REMARK   95  A    between atoms: _237  and  _239
REMARK   96  A    between atoms: _239  and  _240
REMARK   97  A    between atoms: _239  and  _242
REMARK   98  A    between atoms: _242  and  _243
REMARK   99  A    between atoms: _249  and  _251
REMARK  100  A    between atoms: _251  and  _252
REMARK  101  A    between atoms: _251  and  _254
REMARK  102  A    between atoms: _254  and  _255
REMARK  103  A    between atoms: _255  and  _256
REMARK  104  A    between atoms: _259  and  _261
REMARK  105  A    between atoms: _261  and  _262
REMARK  106  A    between atoms: _261  and  _264
REMARK  107  A    between atoms: _264  and  _265
REMARK  108  A    between atoms: _267  and  _269
REMARK  109  A    between atoms: _269  and  _270
REMARK  110  A    between atoms: _269  and  _272
REMARK  111  A    between atoms: _272  and  _273
REMARK  112  A    between atoms: _276  and  _278
REMARK  113  A    between atoms: _278  and  _279
REMARK  114  A    between atoms: _278  and  _281
REMARK  115  A    between atoms: _281  and  _282
REMARK  116  A    between atoms: _285  and  _287
REMARK  117  A    between atoms: _287  and  _288
REMARK  118  A    between atoms: _287  and  _290
REMARK  119  A    between atoms: _290  and  _291
REMARK  120  A    between atoms: _293  and  _295
REMARK  121  A    between atoms: _295  and  _296
REMARK  122  A    between atoms: _298  and  _300
REMARK  123  A    between atoms: _300  and  _301
REMARK  124  A    between atoms: _300  and  _303
REMARK  125  A    between atoms: _303  and  _304
REMARK  126  A    between atoms: _309  and  _311
REMARK  127  A    between atoms: _311  and  _312
REMARK  128  A    between atoms: _311  and  _314
REMARK  129  A    between atoms: _314  and  _315
REMARK                            x       y       z     vdW  Elec       q    Type
REMARK                         _______ _______ _______ _____ _____    ______ ____
ROOT
ATOM      1  CA  LEU A   1     -33.896  15.450  21.810  0.00  0.00    +0.133 C 
ENDROOT
BRANCH   1   2
ATOM      2  N   LEU A   1     -32.931  16.470  22.190  0.00  0.00    -0.239 NA
ATOM      3  H   LEU A   1     -31.946  16.428  21.859  0.00  0.00    +0.142 HD
ENDBRANCH   1   2
BRANCH   1   4
ATOM      4  C   LEU A   1     -33.667  14.118  22.513  0.00  0.00    +0.224 C 
ATOM      5  O   LEU A   1     -34.448  13.189  22.290  0.00  0.00    -0.287 OA
ENDBRANCH   1   4
BRANCH   1   6
ATOM      6  CB  LEU A   1     -33.810  15.170  20.318  0.00  0.00    +0.025 C 
BRANCH   6   7
ATOM      7  CG  LEU A   1     -34.323  16.267  19.415  0.00  0.00    +0.002 C 
ATOM      8  CD2 LEU A   1     -35.810  16.467  19.662  0.00  0.00    +0.000 C 
ATOM      9  CD1 LEU A   1     -33.990  15.776  18.002  0.00  0.00    +0.000 C 
ENDBRANCH   6   7
ENDBRANCH   1   6
TORSDOF 4
REMARK  Name = ../refined-set-2016/2xp7/2xp7_pocket.pdb
REMARK  129 active torsions:
REMARK  status: ('A' for Active; 'I' for Inactive)
REMARK    1  A    between atoms: _1  and  _3
REMARK    2  A    between atoms: _3  and  _4
REMARK    3  A    between atoms: _3  and  _6
REMARK    4  A    between atoms: _6  and  _7
REMARK    5  A    between atoms: _12  and  _14
REMARK    6  A    between atoms: _14  and  _15
REMARK    7  A    between atoms: _14  and  _17
REMARK    8  A    between atoms: _17  and  _18
REMARK    9  A    between atoms: _21  and  _23
REMARK   10  A    between atoms: _23  and  _24
REMARK   11  A    between atoms: _23  and  _26
REMARK   12  A    between atoms: _26  and  _27
REMARK   13  A    between atoms: _27  and  _28
REMARK   14  A    between atoms: _28  and  _29
REMARK   15  A    between atoms: _29  and  _30
REMARK   16  A    between atoms: _34  and  _36
REMARK   17  A    between atoms: _36  and  _37
REMARK   18  A    between atoms: _36  and  _39
REMARK   19  A    between atoms: _39  and  _40
REMARK   20  A    between atoms: _42  and  _44
REMARK   21  A    between atoms: _44  and  _45
REMARK   22  A    between atoms: _44  and  _47
REMARK   23  A    between atoms: _48  and  _49
REMARK   24  A    between atoms: _49  and  _50
REMARK   25  A    between atoms: _59  and  _61
REMARK   26  A    between atoms: _61  and  _62
REMARK   27  A    between atoms: _61  and  _64
REMARK   28  A    between atoms: _65  and  _66
REMARK   29  A    between atoms: _66  and  _67
REMARK   30  A    between atoms: _77  and  _78
REMARK   31  A    between atoms: _83  and  _85
REMARK   32  A    between atoms: _85  and  _86
REMARK   33  A    between atoms: _85  and  _88
REMARK   34  A    between atoms: _88  and  _89
REMARK   35  A    between atoms: _91  and  _93
REMARK   36  A    between atoms: _93  and  _94
REMARK   37  A    between atoms: _93  and  _96
REMARK   38  A    between atoms: _96  and  _97
REMARK   39  A    between atoms: _99  and  _101
REMARK   40  A    between atoms: _101  and  _102
REMARK   41  A    between atoms: _101  and  _104
REMARK   42  A    between atoms: _104  and  _105
REMARK   43  A    between atoms: _115  and  _117
REMARK   44  A    between atoms: _117  and  _118
REMARK   45  A    between atoms: _117  and  _120
REMARK   46  A    between atoms: _120  and  _121
REMARK   47  A    between atoms: _121  and  _122
REMARK   48  A    between atoms: _122  and  _123
REMARK   49  A    between atoms: _132  and  _134
REMARK   50  A    between atoms: _134  and  _135
REMARK   51  A    between atoms: _134  and  _137
REMARK   52  A    between atoms: _137  and  _138
REMARK   53  A    between atoms: _140  and  _142
REMARK   54  A    between atoms: _142  and  _143
REMARK   55  A    between atoms: _142  and  _145
REMARK   56  A    between atoms: _145  and  _146
REMARK   57  A    between atoms: _149  and  _151
REMARK   58  A    between atoms: _151  and  _152
REMARK   59  A    between atoms: _151  and  _154
REMARK   60  A    between atoms: _156  and  _158
REMARK   61  A    between atoms: _158  and  _159
REMARK   62  A    between atoms: _158  and  _161
REMARK   63  A    between atoms: _161  and  _162
REMARK   64  A    between atoms: _164  and  _166
REMARK   65  A    between atoms: _166  and  _167
REMARK   66  A    between atoms: _166  and  _169
REMARK   67  A    between atoms: _169  and  _170
REMARK   68  A    between atoms: _172  and  _174
REMARK   69  A    between atoms: _174  and  _175
REMARK   70  A    between atoms: _178  and  _180
REMARK   71  A    between atoms: _180  and  _181
REMARK   72  A    between atoms: _183  and  _185
REMARK   73  A    between atoms: _185  and  _186
REMARK   74  A    between atoms: _185  and  _188
REMARK   75  A    between atoms: _188  and  _189
REMARK   76  A    between atoms: _192  and  _194
REMARK   77  A    between atoms: _194  and  _195
REMARK   78  A    between atoms: _194  and  _197
REMARK   79  A    between atoms: _197  and  _198
REMARK   80  A    between atoms: _204  and  _206
REMARK   81  A    between atoms: _206  and  _207
REMARK   82  A    between atoms: _206  and  _209
REMARK   83  A    between atoms: _209  and  _210
REMARK   84  A    between atoms: _210  and  _211
REMARK   85  A    between atoms: _216  and  _218
REMARK   86  A    between atoms: _218  and  _219
REMARK   87  A    between atoms: _218  and  _221
REMARK   88  A    between atoms: _221  and  _222
REMARK   89  A    between atoms: _222  and  _223
REMARK   90  A    between atoms: _225  and  _227
REMARK   91  A    between atoms: _227  and  _228
REMARK   92  A    between atoms: _227  and  _230
REMARK   93  A    between atoms: _230  and  _231
REMARK   94  A    between atoms: _231  and  _232
REMARK   95  A    between atoms: _237  and  _239
REMARK   96  A    between atoms: _239  and  _240
REMARK   97  A    between atoms: _239  and  _242
REMARK   98  A    between atoms: _242  and  _243
REMARK   99  A    between atoms: _249  and  _251
REMARK  100  A    between atoms: _251  and  _252
REMARK  101  A    between atoms: _251  and  _254
REMARK  102  A    between atoms: _254  and  _255
REMARK  103  A    between atoms: _255  and  _256
REMARK  104  A    between atoms: _259  and  _261
REMARK  105  A    between atoms: _261  and  _262
REMARK  106  A    between atoms: _261  and  _264
REMARK  107  A    between atoms: _264  and  _265
REMARK  108  A    between atoms: _267  and  _269
REMARK  109  A    between atoms: _269  and  _270
REMARK  110  A    between atoms: _269  and  _272
REMARK  111  A    between atoms: _272  and  _273
REMARK  112  A    between atoms: _276  and  _278
REMARK  113  A    between atoms: _278  and  _279
REMARK  114  A    between atoms: _278  and  _281
REMARK  115  A    between atoms: _281  and  _282
REMARK  116  A    between atoms: _285  and  _287
REMARK  117  A    between atoms: _287  and  _288
REMARK  118  A    between atoms: _287  and  _290
REMARK  119  A    between atoms: _290  and  _291
REMARK  120  A    between atoms: _293  and  _295
REMARK  121  A    between atoms: _295  and  _296
REMARK  122  A    between atoms: _298  and  _300
REMARK  123  A    between atoms: _300  and  _301
REMARK  124  A    between atoms: _300  and  _303
REMARK  125  A    between atoms: _303  and  _304
REMARK  126  A    between atoms: _309  and  _311
REMARK  127  A    between atoms: _311  and  _312
REMARK  128  A    between atoms: _311  and  _314
REMARK  129  A    between atoms: _314  and  _315
REMARK                            x       y       z     vdW  Elec       q    Type
REMARK                         _______ _______ _______ _____ _____    ______ ____
ROOT
ATOM      1  CB  PHE A   1     -32.757   8.975  18.627  0.00  0.00    +0.051 C 
ENDROOT
BRANCH   1   2
ATOM      2  CG  PHE A   1     -31.961  10.002  17.808  0.00  0.00    -0.020 A 
ATOM      3  CD2 PHE A   1     -31.749  11.303  18.302  0.00  0.00    -0.004 A 
ATOM      4  CE2 PHE A   1     -30.994  12.230  17.578  0.00  0.00    -0.000 A 
ATOM      5  CZ  PHE A   1     -30.436  11.877  16.306  0.00  0.00    -0.000 A 
ATOM      6  CE1 PHE A   1     -30.645  10.601  15.802  0.00  0.00    -0.000 A 
ATOM      7  CD1 PHE A   1     -31.416   9.660  16.563  0.00  0.00    -0.004 A 
ENDBRANCH   1   2
BRANCH   1   8
ATOM      8  CA  PHE A   1     -31.879   7.932  19.371  0.00  0.00    +0.137 C 
BRANCH   8   9
ATOM      9  N   PHE A   1     -30.936   8.595  20.258  0.00  0.00    -0.239 NA
ATOM     10  H   PHE A   1     -29.954   8.756  19.955  0.00  0.00    +0.142 HD
ENDBRANCH   8   9
BRANCH   8  11
ATOM     11  C   PHE A   1     -30.983   7.078  18.483  0.00  0.00    +0.224 C 
ATOM     12  O   PHE A   1     -29.782   7.305  18.445  0.00  0.00    -0.287 OA
ENDBRANCH   8  11
ENDBRANCH   1   8
TORSDOF 4
REMARK  Name = ../refined-set-2016/2xp7/2xp7_pocket.pdb
REMARK  129 active torsions:
REMARK  status: ('A' for Active; 'I' for Inactive)
REMARK    1  A    between atoms: _1  and  _3
REMARK    2  A    between atoms: _3  and  _4
REMARK    3  A    between atoms: _3  and  _6
REMARK    4  A    between atoms: _6  and  _7
REMARK    5  A    between atoms: _12  and  _14
REMARK    6  A    between atoms: _14  and  _15
REMARK    7  A    between atoms: _14  and  _17
REMARK    8  A    between atoms: _17  and  _18
REMARK    9  A    between atoms: _21  and  _23
REMARK   10  A    between atoms: _23  and  _24
REMARK   11  A    between atoms: _23  and  _26
REMARK   12  A    between atoms: _26  and  _27
REMARK   13  A    between atoms: _27  and  _28
REMARK   14  A    between atoms: _28  and  _29
REMARK   15  A    between atoms: _29  and  _30
REMARK   16  A    between atoms: _34  and  _36
REMARK   17  A    between atoms: _36  and  _37
REMARK   18  A    between atoms: _36  and  _39
REMARK   19  A    between atoms: _39  and  _40
REMARK   20  A    between atoms: _42  and  _44
REMARK   21  A    between atoms: _44  and  _45
REMARK   22  A    between atoms: _44  and  _47
REMARK   23  A    between atoms: _48  and  _49
REMARK   24  A    between atoms: _49  and  _50
REMARK   25  A    between atoms: _59  and  _61
REMARK   26  A    between atoms: _61  and  _62
REMARK   27  A    between atoms: _61  and  _64
REMARK   28  A    between atoms: _65  and  _66
REMARK   29  A    between atoms: _66  and  _67
REMARK   30  A    between atoms: _77  and  _78
REMARK   31  A    between atoms: _83  and  _85
REMARK   32  A    between atoms: _85  and  _86
REMARK   33  A    between atoms: _85  and  _88
REMARK   34  A    between atoms: _88  and  _89
REMARK   35  A    between atoms: _91  and  _93
REMARK   36  A    between atoms: _93  and  _94
REMARK   37  A    between atoms: _93  and  _96
REMARK   38  A    between atoms: _96  and  _97
REMARK   39  A    between atoms: _99  and  _101
REMARK   40  A    between atoms: _101  and  _102
REMARK   41  A    between atoms: _101  and  _104
REMARK   42  A    between atoms: _104  and  _105
REMARK   43  A    between atoms: _115  and  _117
REMARK   44  A    between atoms: _117  and  _118
REMARK   45  A    between atoms: _117  and  _120
REMARK   46  A    between atoms: _120  and  _121
REMARK   47  A    between atoms: _121  and  _122
REMARK   48  A    between atoms: _122  and  _123
REMARK   49  A    between atoms: _132  and  _134
REMARK   50  A    between atoms: _134  and  _135
REMARK   51  A    between atoms: _134  and  _137
REMARK   52  A    between atoms: _137  and  _138
REMARK   53  A    between atoms: _140  and  _142
REMARK   54  A    between atoms: _142  and  _143
REMARK   55  A    between atoms: _142  and  _145
REMARK   56  A    between atoms: _145  and  _146
REMARK   57  A    between atoms: _149  and  _151
REMARK   58  A    between atoms: _151  and  _152
REMARK   59  A    between atoms: _151  and  _154
REMARK   60  A    between atoms: _156  and  _158
REMARK   61  A    between atoms: _158  and  _159
REMARK   62  A    between atoms: _158  and  _161
REMARK   63  A    between atoms: _161  and  _162
REMARK   64  A    between atoms: _164  and  _166
REMARK   65  A    between atoms: _166  and  _167
REMARK   66  A    between atoms: _166  and  _169
REMARK   67  A    between atoms: _169  and  _170
REMARK   68  A    between atoms: _172  and  _174
REMARK   69  A    between atoms: _174  and  _175
REMARK   70  A    between atoms: _178  and  _180
REMARK   71  A    between atoms: _180  and  _181
REMARK   72  A    between atoms: _183  and  _185
REMARK   73  A    between atoms: _185  and  _186
REMARK   74  A    between atoms: _185  and  _188
REMARK   75  A    between atoms: _188  and  _189
REMARK   76  A    between atoms: _192  and  _194
REMARK   77  A    between atoms: _194  and  _195
REMARK   78  A    between atoms: _194  and  _197
REMARK   79  A    between atoms: _197  and  _198
REMARK   80  A    between atoms: _204  and  _206
REMARK   81  A    between atoms: _206  and  _207
REMARK   82  A    between atoms: _206  and  _209
REMARK   83  A    between atoms: _209  and  _210
REMARK   84  A    between atoms: _210  and  _211
REMARK   85  A    between atoms: _216  and  _218
REMARK   86  A    between atoms: _218  and  _219
REMARK   87  A    between atoms: _218  and  _221
REMARK   88  A    between atoms: _221  and  _222
REMARK   89  A    between atoms: _222  and  _223
REMARK   90  A    between atoms: _225  and  _227
REMARK   91  A    between atoms: _227  and  _228
REMARK   92  A    between atoms: _227  and  _230
REMARK   93  A    between atoms: _230  and  _231
REMARK   94  A    between atoms: _231  and  _232
REMARK   95  A    between atoms: _237  and  _239
REMARK   96  A    between atoms: _239  and  _240
REMARK   97  A    between atoms: _239  and  _242
REMARK   98  A    between atoms: _242  and  _243
REMARK   99  A    between atoms: _249  and  _251
REMARK  100  A    between atoms: _251  and  _252
REMARK  101  A    between atoms: _251  and  _254
REMARK  102  A    between atoms: _254  and  _255
REMARK  103  A    between atoms: _255  and  _256
REMARK  104  A    between atoms: _259  and  _261
REMARK  105  A    between atoms: _261  and  _262
REMARK  106  A    between atoms: _261  and  _264
REMARK  107  A    between atoms: _264  and  _265
REMARK  108  A    between atoms: _267  and  _269
REMARK  109  A    between atoms: _269  and  _270
REMARK  110  A    between atoms: _269  and  _272
REMARK  111  A    between atoms: _272  and  _273
REMARK  112  A    between atoms: _276  and  _278
REMARK  113  A    between atoms: _278  and  _279
REMARK  114  A    between atoms: _278  and  _281
REMARK  115  A    between atoms: _281  and  _282
REMARK  116  A    between atoms: _285  and  _287
REMARK  117  A    between atoms: _287  and  _288
REMARK  118  A    between atoms: _287  and  _290
REMARK  119  A    between atoms: _290  and  _291
REMARK  120  A    between atoms: _293  and  _295
REMARK  121  A    between atoms: _295  and  _296
REMARK  122  A    between atoms: _298  and  _300
REMARK  123  A    between atoms: _300  and  _301
REMARK  124  A    between atoms: _300  and  _303
REMARK  125  A    between atoms: _303  and  _304
REMARK  126  A    between atoms: _309  and  _311
REMARK  127  A    between atoms: _311  and  _312
REMARK  128  A    between atoms: _311  and  _314
REMARK  129  A    between atoms: _314  and  _315
REMARK                            x       y       z     vdW  Elec       q    Type
REMARK                         _______ _______ _______ _____ _____    ______ ____
ROOT
ATOM      1  CA  MET A   2     -36.028  10.050  12.806  0.00  0.00    +0.149 C 
ENDROOT
BRANCH   1   4
ATOM      2  C   GLN A   1     -36.713   8.001  13.924  0.00  0.00    +0.238 C 
ATOM      3  O   GLN A   1     -37.879   8.362  13.933  0.00  0.00    -0.274 OA
ATOM      4  N   MET A   2     -35.740   8.730  13.380  0.00  0.00    -0.297 N 
ATOM      5  H   MET A   2     -34.768   8.361  13.362  0.00  0.00    +0.150 HD
BRANCH   2   6
ATOM      6  CA  GLN A   1     -36.348   6.655  14.534  0.00  0.00    +0.145 C 
BRANCH   6   7
ATOM      7  N   GLN A   1     -35.407   5.859  13.727  0.00  0.00    -0.238 NA
ATOM      8  H   GLN A   1     -34.396   6.104  13.709  0.00  0.00    +0.142 HD
ENDBRANCH   6   7
BRANCH   6   9
ATOM      9  CB  GLN A   1     -35.871   6.810  15.986  0.00  0.00    +0.036 C 
BRANCH   9  10
ATOM     10  CG  GLN A   1     -35.258   5.510  16.624  0.00  0.00    +0.087 C 
BRANCH  10  11
ATOM     11  CD  GLN A   1     -34.935   5.728  18.101  0.00  0.00    +0.219 C 
ATOM     12  OE1 GLN A   1     -34.337   4.887  18.764  0.00  0.00    -0.275 OA
ATOM     13  NE2 GLN A   1     -35.333   6.890  18.611  0.00  0.00    -0.329 N 
ATOM     14 HE21 GLN A   1     -35.140   7.114  19.608  0.00  0.00    +0.145 HD
ATOM     15 HE22 GLN A   1     -35.838   7.575  18.013  0.00  0.00    +0.145 HD
ENDBRANCH  10  11
ENDBRANCH   9  10
ENDBRANCH   6   9
ENDBRANCH   2   6
ENDBRANCH   1   4
BRANCH   1  16
ATOM     16  C   MET A   2     -36.321  10.046  11.281  0.00  0.00    +0.241 C 
ATOM     17  N   GLN A   3     -36.789  11.167  10.765  0.00  0.00    -0.298 N 
ATOM     18  H   GLN A   3     -37.098  11.937  11.393  0.00  0.00    +0.150 HD
ATOM     19  O   MET A   2     -36.082   9.065  10.588  0.00  0.00    -0.273 OA
BRANCH  17  20
ATOM     20  CA  GLN A   3     -36.875  11.332   9.310  0.00  0.00    +0.137 C 
BRANCH  20  21
ATOM     21  C   GLN A   3     -35.483  11.096   8.721  0.00  0.00    +0.227 C 
ATOM     22  O   GLN A   3     -34.467  11.499   9.328  0.00  0.00    -0.286 OA
ENDBRANCH  20  21
BRANCH  20  23
ATOM     23  CB  GLN A   3     -37.335  12.736   9.005  0.00  0.00    +0.037 C 
BRANCH  23  24
ATOM     24  CG  GLN A   3     -38.357  13.200  10.010  0.00  0.00    +0.087 C 
BRANCH  24  25
ATOM     25  CD  GLN A   3     -39.186  14.363   9.548  0.00  0.00    +0.219 C 
ATOM     26  NE2 GLN A   3     -39.293  15.384  10.391  0.00  0.00    -0.329 N 
ATOM     27 HE21 GLN A   3     -38.790  15.362  11.301  0.00  0.00    +0.145 HD
ATOM     28 HE22 GLN A   3     -39.880  16.206  10.141  0.00  0.00    +0.145 HD
ATOM     29  OE1 GLN A   3     -39.762  14.332   8.448  0.00  0.00    -0.275 OA
ENDBRANCH  24  25
ENDBRANCH  23  24
ENDBRANCH  20  23
ENDBRANCH  17  20
ENDBRANCH   1  16
BRANCH   1  30
ATOM     30  CB  MET A   2     -34.867  11.048  13.117  0.00  0.00    +0.041 C 
BRANCH  30  31
ATOM     31  CG  MET A   2     -34.503  11.181  14.599  0.00  0.00    +0.060 C 
BRANCH  31  32
ATOM     32  SD  MET A   2     -35.805  11.919  15.627  0.00  0.00    -0.139 S 
ATOM     33  CE  MET A   2     -35.259  11.475  17.272  0.00  0.00    +0.069 C 
ENDBRANCH  31  32
ENDBRANCH  30  31
ENDBRANCH   1  30
TORSDOF 15
REMARK  Name = ../refined-set-2016/2xp7/2xp7_pocket.pdb
REMARK  129 active torsions:
REMARK  status: ('A' for Active; 'I' for Inactive)
REMARK    1  A    between atoms: _1  and  _3
REMARK    2  A    between atoms: _3  and  _4
REMARK    3  A    between atoms: _3  and  _6
REMARK    4  A    between atoms: _6  and  _7
REMARK    5  A    between atoms: _12  and  _14
REMARK    6  A    between atoms: _14  and  _15
REMARK    7  A    between atoms: _14  and  _17
REMARK    8  A    between atoms: _17  and  _18
REMARK    9  A    between atoms: _21  and  _23
REMARK   10  A    between atoms: _23  and  _24
REMARK   11  A    between atoms: _23  and  _26
REMARK   12  A    between atoms: _26  and  _27
REMARK   13  A    between atoms: _27  and  _28
REMARK   14  A    between atoms: _28  and  _29
REMARK   15  A    between atoms: _29  and  _30
REMARK   16  A    between atoms: _34  and  _36
REMARK   17  A    between atoms: _36  and  _37
REMARK   18  A    between atoms: _36  and  _39
REMARK   19  A    between atoms: _39  and  _40
REMARK   20  A    between atoms: _42  and  _44
REMARK   21  A    between atoms: _44  and  _45
REMARK   22  A    between atoms: _44  and  _47
REMARK   23  A    between atoms: _48  and  _49
REMARK   24  A    between atoms: _49  and  _50
REMARK   25  A    between atoms: _59  and  _61
REMARK   26  A    between atoms: _61  and  _62
REMARK   27  A    between atoms: _61  and  _64
REMARK   28  A    between atoms: _65  and  _66
REMARK   29  A    between atoms: _66  and  _67
REMARK   30  A    between atoms: _77  and  _78
REMARK   31  A    between atoms: _83  and  _85
REMARK   32  A    between atoms: _85  and  _86
REMARK   33  A    between atoms: _85  and  _88
REMARK   34  A    between atoms: _88  and  _89
REMARK   35  A    between atoms: _91  and  _93
REMARK   36  A    between atoms: _93  and  _94
REMARK   37  A    between atoms: _93  and  _96
REMARK   38  A    between atoms: _96  and  _97
REMARK   39  A    between atoms: _99  and  _101
REMARK   40  A    between atoms: _101  and  _102
REMARK   41  A    between atoms: _101  and  _104
REMARK   42  A    between atoms: _104  and  _105
REMARK   43  A    between atoms: _115  and  _117
REMARK   44  A    between atoms: _117  and  _118
REMARK   45  A    between atoms: _117  and  _120
REMARK   46  A    between atoms: _120  and  _121
REMARK   47  A    between atoms: _121  and  _122
REMARK   48  A    between atoms: _122  and  _123
REMARK   49  A    between atoms: _132  and  _134
REMARK   50  A    between atoms: _134  and  _135
REMARK   51  A    between atoms: _134  and  _137
REMARK   52  A    between atoms: _137  and  _138
REMARK   53  A    between atoms: _140  and  _142
REMARK   54  A    between atoms: _142  and  _143
REMARK   55  A    between atoms: _142  and  _145
REMARK   56  A    between atoms: _145  and  _146
REMARK   57  A    between atoms: _149  and  _151
REMARK   58  A    between atoms: _151  and  _152
REMARK   59  A    between atoms: _151  and  _154
REMARK   60  A    between atoms: _156  and  _158
REMARK   61  A    between atoms: _158  and  _159
REMARK   62  A    between atoms: _158  and  _161
REMARK   63  A    between atoms: _161  and  _162
REMARK   64  A    between atoms: _164  and  _166
REMARK   65  A    between atoms: _166  and  _167
REMARK   66  A    between atoms: _166  and  _169
REMARK   67  A    between atoms: _169  and  _170
REMARK   68  A    between atoms: _172  and  _174
REMARK   69  A    between atoms: _174  and  _175
REMARK   70  A    between atoms: _178  and  _180
REMARK   71  A    between atoms: _180  and  _181
REMARK   72  A    between atoms: _183  and  _185
REMARK   73  A    between atoms: _185  and  _186
REMARK   74  A    between atoms: _185  and  _188
REMARK   75  A    between atoms: _188  and  _189
REMARK   76  A    between atoms: _192  and  _194
REMARK   77  A    between atoms: _194  and  _195
REMARK   78  A    between atoms: _194  and  _197
REMARK   79  A    between atoms: _197  and  _198
REMARK   80  A    between atoms: _204  and  _206
REMARK   81  A    between atoms: _206  and  _207
REMARK   82  A    between atoms: _206  and  _209
REMARK   83  A    between atoms: _209  and  _210
REMARK   84  A    between atoms: _210  and  _211
REMARK   85  A    between atoms: _216  and  _218
REMARK   86  A    between atoms: _218  and  _219
REMARK   87  A    between atoms: _218  and  _221
REMARK   88  A    between atoms: _221  and  _222
REMARK   89  A    between atoms: _222  and  _223
REMARK   90  A    between atoms: _225  and  _227
REMARK   91  A    between atoms: _227  and  _228
REMARK   92  A    between atoms: _227  and  _230
REMARK   93  A    between atoms: _230  and  _231
REMARK   94  A    between atoms: _231  and  _232
REMARK   95  A    between atoms: _237  and  _239
REMARK   96  A    between atoms: _239  and  _240
REMARK   97  A    between atoms: _239  and  _242
REMARK   98  A    between atoms: _242  and  _243
REMARK   99  A    between atoms: _249  and  _251
REMARK  100  A    between atoms: _251  and  _252
REMARK  101  A    between atoms: _251  and  _254
REMARK  102  A    between atoms: _254  and  _255
REMARK  103  A    between atoms: _255  and  _256
REMARK  104  A    between atoms: _259  and  _261
REMARK  105  A    between atoms: _261  and  _262
REMARK  106  A    between atoms: _261  and  _264
REMARK  107  A    between atoms: _264  and  _265
REMARK  108  A    between atoms: _267  and  _269
REMARK  109  A    between atoms: _269  and  _270
REMARK  110  A    between atoms: _269  and  _272
REMARK  111  A    between atoms: _272  and  _273
REMARK  112  A    between atoms: _276  and  _278
REMARK  113  A    between atoms: _278  and  _279
REMARK  114  A    between atoms: _278  and  _281
REMARK  115  A    between atoms: _281  and  _282
REMARK  116  A    between atoms: _285  and  _287
REMARK  117  A    between atoms: _287  and  _288
REMARK  118  A    between atoms: _287  and  _290
REMARK  119  A    between atoms: _290  and  _291
REMARK  120  A    between atoms: _293  and  _295
REMARK  121  A    between atoms: _295  and  _296
REMARK  122  A    between atoms: _298  and  _300
REMARK  123  A    between atoms: _300  and  _301
REMARK  124  A    between atoms: _300  and  _303
REMARK  125  A    between atoms: _303  and  _304
REMARK  126  A    between atoms: _309  and  _311
REMARK  127  A    between atoms: _311  and  _312
REMARK  128  A    between atoms: _311  and  _314
REMARK  129  A    between atoms: _314  and  _315
REMARK                            x       y       z     vdW  Elec       q    Type
REMARK                         _______ _______ _______ _____ _____    ______ ____
ROOT
ATOM      1  C   PHE A   1     -31.519  13.215  10.551  0.00  0.00    +0.239 C 
ATOM      2  O   PHE A   1     -30.442  13.483  11.120  0.00  0.00    -0.274 OA
ATOM      3  N   GLU A   2     -31.909  11.966  10.329  0.00  0.00    -0.298 N 
ATOM      4  H   GLU A   2     -32.781  11.774   9.796  0.00  0.00    +0.150 HD
ENDROOT
BRANCH   1   5
ATOM      5  CA  PHE A   1     -32.388  14.305  10.013  0.00  0.00    +0.149 C 
BRANCH   5   6
ATOM      6  N   PHE A   1     -32.824  13.924   8.682  0.00  0.00    -0.238 NA
ATOM      7  H   PHE A   1     -33.820  13.673   8.520  0.00  0.00    +0.142 HD
ENDBRANCH   5   6
BRANCH   5   8
ATOM      8  CB  PHE A   1     -33.604  14.513  10.897  0.00  0.00    +0.053 C 
BRANCH   8   9
ATOM      9  CG  PHE A   1     -33.284  15.114  12.222  0.00  0.00    -0.020 A 
ATOM     10  CD2 PHE A   1     -32.827  14.310  13.280  0.00  0.00    -0.004 A 
ATOM     11  CE2 PHE A   1     -32.520  14.883  14.526  0.00  0.00    -0.000 A 
ATOM     12  CZ  PHE A   1     -32.663  16.247  14.730  0.00  0.00    -0.000 A 
ATOM     13  CE1 PHE A   1     -33.156  17.051  13.683  0.00  0.00    -0.000 A 
ATOM     14  CD1 PHE A   1     -33.462  16.452  12.426  0.00  0.00    -0.004 A 
ENDBRANCH   8   9
ENDBRANCH   5   8
ENDBRANCH   1   5
BRANCH   3  15
ATOM     15  CA  GLU A   2     -31.088  10.850  10.849  0.00  0.00    +0.137 C 
BRANCH  15  16
ATOM     16  C   GLU A   2     -29.691  10.826  10.256  0.00  0.00    +0.227 C 
ATOM     17  O   GLU A   2     -28.641  10.689  10.961  0.00  0.00    -0.286 OA
ENDBRANCH  15  16
BRANCH  15  18
ATOM     18  CB  GLU A   2     -31.765   9.513  10.615  0.00  0.00    +0.039 C 
BRANCH  18  19
ATOM     19  CG  GLU A   2     -30.810   8.359  10.754  0.00  0.00    +0.116 C 
BRANCH  19  20
ATOM     20  CD  GLU A   2     -31.485   7.026  10.278  0.00  0.00    +0.365 C 
ATOM     21  OE2 GLU A   2     -32.682   6.923  10.574  0.00  0.00    -0.246 OA
ATOM     22  OE1 GLU A   2     -30.835   6.161   9.572  0.00  0.00    -0.246 OA
ENDBRANCH  19  20
ENDBRANCH  18  19
ENDBRANCH  15  18
ENDBRANCH   3  15
TORSDOF 9
REMARK  Name = ../refined-set-2016/2xp7/2xp7_pocket.pdb
REMARK  129 active torsions:
REMARK  status: ('A' for Active; 'I' for Inactive)
REMARK    1  A    between atoms: _1  and  _3
REMARK    2  A    between atoms: _3  and  _4
REMARK    3  A    between atoms: _3  and  _6
REMARK    4  A    between atoms: _6  and  _7
REMARK    5  A    between atoms: _12  and  _14
REMARK    6  A    between atoms: _14  and  _15
REMARK    7  A    between atoms: _14  and  _17
REMARK    8  A    between atoms: _17  and  _18
REMARK    9  A    between atoms: _21  and  _23
REMARK   10  A    between atoms: _23  and  _24
REMARK   11  A    between atoms: _23  and  _26
REMARK   12  A    between atoms: _26  and  _27
REMARK   13  A    between atoms: _27  and  _28
REMARK   14  A    between atoms: _28  and  _29
REMARK   15  A    between atoms: _29  and  _30
REMARK   16  A    between atoms: _34  and  _36
REMARK   17  A    between atoms: _36  and  _37
REMARK   18  A    between atoms: _36  and  _39
REMARK   19  A    between atoms: _39  and  _40
REMARK   20  A    between atoms: _42  and  _44
REMARK   21  A    between atoms: _44  and  _45
REMARK   22  A    between atoms: _44  and  _47
REMARK   23  A    between atoms: _48  and  _49
REMARK   24  A    between atoms: _49  and  _50
REMARK   25  A    between atoms: _59  and  _61
REMARK   26  A    between atoms: _61  and  _62
REMARK   27  A    between atoms: _61  and  _64
REMARK   28  A    between atoms: _65  and  _66
REMARK   29  A    between atoms: _66  and  _67
REMARK   30  A    between atoms: _77  and  _78
REMARK   31  A    between atoms: _83  and  _85
REMARK   32  A    between atoms: _85  and  _86
REMARK   33  A    between atoms: _85  and  _88
REMARK   34  A    between atoms: _88  and  _89
REMARK   35  A    between atoms: _91  and  _93
REMARK   36  A    between atoms: _93  and  _94
REMARK   37  A    between atoms: _93  and  _96
REMARK   38  A    between atoms: _96  and  _97
REMARK   39  A    between atoms: _99  and  _101
REMARK   40  A    between atoms: _101  and  _102
REMARK   41  A    between atoms: _101  and  _104
REMARK   42  A    between atoms: _104  and  _105
REMARK   43  A    between atoms: _115  and  _117
REMARK   44  A    between atoms: _117  and  _118
REMARK   45  A    between atoms: _117  and  _120
REMARK   46  A    between atoms: _120  and  _121
REMARK   47  A    between atoms: _121  and  _122
REMARK   48  A    between atoms: _122  and  _123
REMARK   49  A    between atoms: _132  and  _134
REMARK   50  A    between atoms: _134  and  _135
REMARK   51  A    between atoms: _134  and  _137
REMARK   52  A    between atoms: _137  and  _138
REMARK   53  A    between atoms: _140  and  _142
REMARK   54  A    between atoms: _142  and  _143
REMARK   55  A    between atoms: _142  and  _145
REMARK   56  A    between atoms: _145  and  _146
REMARK   57  A    between atoms: _149  and  _151
REMARK   58  A    between atoms: _151  and  _152
REMARK   59  A    between atoms: _151  and  _154
REMARK   60  A    between atoms: _156  and  _158
REMARK   61  A    between atoms: _158  and  _159
REMARK   62  A    between atoms: _158  and  _161
REMARK   63  A    between atoms: _161  and  _162
REMARK   64  A    between atoms: _164  and  _166
REMARK   65  A    between atoms: _166  and  _167
REMARK   66  A    between atoms: _166  and  _169
REMARK   67  A    between atoms: _169  and  _170
REMARK   68  A    between atoms: _172  and  _174
REMARK   69  A    between atoms: _174  and  _175
REMARK   70  A    between atoms: _178  and  _180
REMARK   71  A    between atoms: _180  and  _181
REMARK   72  A    between atoms: _183  and  _185
REMARK   73  A    between atoms: _185  and  _186
REMARK   74  A    between atoms: _185  and  _188
REMARK   75  A    between atoms: _188  and  _189
REMARK   76  A    between atoms: _192  and  _194
REMARK   77  A    between atoms: _194  and  _195
REMARK   78  A    between atoms: _194  and  _197
REMARK   79  A    between atoms: _197  and  _198
REMARK   80  A    between atoms: _204  and  _206
REMARK   81  A    between atoms: _206  and  _207
REMARK   82  A    between atoms: _206  and  _209
REMARK   83  A    between atoms: _209  and  _210
REMARK   84  A    between atoms: _210  and  _211
REMARK   85  A    between atoms: _216  and  _218
REMARK   86  A    between atoms: _218  and  _219
REMARK   87  A    between atoms: _218  and  _221
REMARK   88  A    between atoms: _221  and  _222
REMARK   89  A    between atoms: _222  and  _223
REMARK   90  A    between atoms: _225  and  _227
REMARK   91  A    between atoms: _227  and  _228
REMARK   92  A    between atoms: _227  and  _230
REMARK   93  A    between atoms: _230  and  _231
REMARK   94  A    between atoms: _231  and  _232
REMARK   95  A    between atoms: _237  and  _239
REMARK   96  A    between atoms: _239  and  _240
REMARK   97  A    between atoms: _239  and  _242
REMARK   98  A    between atoms: _242  and  _243
REMARK   99  A    between atoms: _249  and  _251
REMARK  100  A    between atoms: _251  and  _252
REMARK  101  A    between atoms: _251  and  _254
REMARK  102  A    between atoms: _254  and  _255
REMARK  103  A    between atoms: _255  and  _256
REMARK  104  A    between atoms: _259  and  _261
REMARK  105  A    between atoms: _261  and  _262
REMARK  106  A    between atoms: _261  and  _264
REMARK  107  A    between atoms: _264  and  _265
REMARK  108  A    between atoms: _267  and  _269
REMARK  109  A    between atoms: _269  and  _270
REMARK  110  A    between atoms: _269  and  _272
REMARK  111  A    between atoms: _272  and  _273
REMARK  112  A    between atoms: _276  and  _278
REMARK  113  A    between atoms: _278  and  _279
REMARK  114  A    between atoms: _278  and  _281
REMARK  115  A    between atoms: _281  and  _282
REMARK  116  A    between atoms: _285  and  _287
REMARK  117  A    between atoms: _287  and  _288
REMARK  118  A    between atoms: _287  and  _290
REMARK  119  A    between atoms: _290  and  _291
REMARK  120  A    between atoms: _293  and  _295
REMARK  121  A    between atoms: _295  and  _296
REMARK  122  A    between atoms: _298  and  _300
REMARK  123  A    between atoms: _300  and  _301
REMARK  124  A    between atoms: _300  and  _303
REMARK  125  A    between atoms: _303  and  _304
REMARK  126  A    between atoms: _309  and  _311
REMARK  127  A    between atoms: _311  and  _312
REMARK  128  A    between atoms: _311  and  _314
REMARK  129  A    between atoms: _314  and  _315
REMARK                            x       y       z     vdW  Elec       q    Type
REMARK                         _______ _______ _______ _____ _____    ______ ____
ROOT
ATOM      1  CA  SER A   1     -27.055  13.361  12.966  0.00  0.00    +0.163 C 
ENDROOT
BRANCH   1   2
ATOM      2  N   SER A   1     -27.447  13.506  11.558  0.00  0.00    -0.237 NA
ATOM      3  H   SER A   1     -28.392  13.198  11.252  0.00  0.00    +0.142 HD
ENDBRANCH   1   2
BRANCH   1   4
ATOM      4  CB  SER A   1     -25.970  12.387  13.047  0.00  0.00    +0.227 C 
ATOM      5  OG  SER A   1     -25.016  12.629  13.778  0.00  0.00    -0.287 OA
ENDBRANCH   1   4
BRANCH   1   6
ATOM      6  C   SER A   1     -28.224  12.904  13.824  0.00  0.00    +0.162 C 
BRANCH   6   7
ATOM      7  O   SER A   1     -29.339  13.733  13.578  0.00  0.00    -0.380 OA
ATOM      8  H   SER A   1     -29.588  13.674  12.622  0.00  0.00    +0.211 HD
ENDBRANCH   6   7
ENDBRANCH   1   6
TORSDOF 4
REMARK  Name = ../refined-set-2016/2xp7/2xp7_pocket.pdb
REMARK  129 active torsions:
REMARK  status: ('A' for Active; 'I' for Inactive)
REMARK    1  A    between atoms: _1  and  _3
REMARK    2  A    between atoms: _3  and  _4
REMARK    3  A    between atoms: _3  and  _6
REMARK    4  A    between atoms: _6  and  _7
REMARK    5  A    between atoms: _12  and  _14
REMARK    6  A    between atoms: _14  and  _15
REMARK    7  A    between atoms: _14  and  _17
REMARK    8  A    between atoms: _17  and  _18
REMARK    9  A    between atoms: _21  and  _23
REMARK   10  A    between atoms: _23  and  _24
REMARK   11  A    between atoms: _23  and  _26
REMARK   12  A    between atoms: _26  and  _27
REMARK   13  A    between atoms: _27  and  _28
REMARK   14  A    between atoms: _28  and  _29
REMARK   15  A    between atoms: _29  and  _30
REMARK   16  A    between atoms: _34  and  _36
REMARK   17  A    between atoms: _36  and  _37
REMARK   18  A    between atoms: _36  and  _39
REMARK   19  A    between atoms: _39  and  _40
REMARK   20  A    between atoms: _42  and  _44
REMARK   21  A    between atoms: _44  and  _45
REMARK   22  A    between atoms: _44  and  _47
REMARK   23  A    between atoms: _48  and  _49
REMARK   24  A    between atoms: _49  and  _50
REMARK   25  A    between atoms: _59  and  _61
REMARK   26  A    between atoms: _61  and  _62
REMARK   27  A    between atoms: _61  and  _64
REMARK   28  A    between atoms: _65  and  _66
REMARK   29  A    between atoms: _66  and  _67
REMARK   30  A    between atoms: _77  and  _78
REMARK   31  A    between atoms: _83  and  _85
REMARK   32  A    between atoms: _85  and  _86
REMARK   33  A    between atoms: _85  and  _88
REMARK   34  A    between atoms: _88  and  _89
REMARK   35  A    between atoms: _91  and  _93
REMARK   36  A    between atoms: _93  and  _94
REMARK   37  A    between atoms: _93  and  _96
REMARK   38  A    between atoms: _96  and  _97
REMARK   39  A    between atoms: _99  and  _101
REMARK   40  A    between atoms: _101  and  _102
REMARK   41  A    between atoms: _101  and  _104
REMARK   42  A    between atoms: _104  and  _105
REMARK   43  A    between atoms: _115  and  _117
REMARK   44  A    between atoms: _117  and  _118
REMARK   45  A    between atoms: _117  and  _120
REMARK   46  A    between atoms: _120  and  _121
REMARK   47  A    between atoms: _121  and  _122
REMARK   48  A    between atoms: _122  and  _123
REMARK   49  A    between atoms: _132  and  _134
REMARK   50  A    between atoms: _134  and  _135
REMARK   51  A    between atoms: _134  and  _137
REMARK   52  A    between atoms: _137  and  _138
REMARK   53  A    between atoms: _140  and  _142
REMARK   54  A    between atoms: _142  and  _143
REMARK   55  A    between atoms: _142  and  _145
REMARK   56  A    between atoms: _145  and  _146
REMARK   57  A    between atoms: _149  and  _151
REMARK   58  A    between atoms: _151  and  _152
REMARK   59  A    between atoms: _151  and  _154
REMARK   60  A    between atoms: _156  and  _158
REMARK   61  A    between atoms: _158  and  _159
REMARK   62  A    between atoms: _158  and  _161
REMARK   63  A    between atoms: _161  and  _162
REMARK   64  A    between atoms: _164  and  _166
REMARK   65  A    between atoms: _166  and  _167
REMARK   66  A    between atoms: _166  and  _169
REMARK   67  A    between atoms: _169  and  _170
REMARK   68  A    between atoms: _172  and  _174
REMARK   69  A    between atoms: _174  and  _175
REMARK   70  A    between atoms: _178  and  _180
REMARK   71  A    between atoms: _180  and  _181
REMARK   72  A    between atoms: _183  and  _185
REMARK   73  A    between atoms: _185  and  _186
REMARK   74  A    between atoms: _185  and  _188
REMARK   75  A    between atoms: _188  and  _189
REMARK   76  A    between atoms: _192  and  _194
REMARK   77  A    between atoms: _194  and  _195
REMARK   78  A    between atoms: _194  and  _197
REMARK   79  A    between atoms: _197  and  _198
REMARK   80  A    between atoms: _204  and  _206
REMARK   81  A    between atoms: _206  and  _207
REMARK   82  A    between atoms: _206  and  _209
REMARK   83  A    between atoms: _209  and  _210
REMARK   84  A    between atoms: _210  and  _211
REMARK   85  A    between atoms: _216  and  _218
REMARK   86  A    between atoms: _218  and  _219
REMARK   87  A    between atoms: _218  and  _221
REMARK   88  A    between atoms: _221  and  _222
REMARK   89  A    between atoms: _222  and  _223
REMARK   90  A    between atoms: _225  and  _227
REMARK   91  A    between atoms: _227  and  _228
REMARK   92  A    between atoms: _227  and  _230
REMARK   93  A    between atoms: _230  and  _231
REMARK   94  A    between atoms: _231  and  _232
REMARK   95  A    between atoms: _237  and  _239
REMARK   96  A    between atoms: _239  and  _240
REMARK   97  A    between atoms: _239  and  _242
REMARK   98  A    between atoms: _242  and  _243
REMARK   99  A    between atoms: _249  and  _251
REMARK  100  A    between atoms: _251  and  _252
REMARK  101  A    between atoms: _251  and  _254
REMARK  102  A    between atoms: _254  and  _255
REMARK  103  A    between atoms: _255  and  _256
REMARK  104  A    between atoms: _259  and  _261
REMARK  105  A    between atoms: _261  and  _262
REMARK  106  A    between atoms: _261  and  _264
REMARK  107  A    between atoms: _264  and  _265
REMARK  108  A    between atoms: _267  and  _269
REMARK  109  A    between atoms: _269  and  _270
REMARK  110  A    between atoms: _269  and  _272
REMARK  111  A    between atoms: _272  and  _273
REMARK  112  A    between atoms: _276  and  _278
REMARK  113  A    between atoms: _278  and  _279
REMARK  114  A    between atoms: _278  and  _281
REMARK  115  A    between atoms: _281  and  _282
REMARK  116  A    between atoms: _285  and  _287
REMARK  117  A    between atoms: _287  and  _288
REMARK  118  A    between atoms: _287  and  _290
REMARK  119  A    between atoms: _290  and  _291
REMARK  120  A    between atoms: _293  and  _295
REMARK  121  A    between atoms: _295  and  _296
REMARK  122  A    between atoms: _298  and  _300
REMARK  123  A    between atoms: _300  and  _301
REMARK  124  A    between atoms: _300  and  _303
REMARK  125  A    between atoms: _303  and  _304
REMARK  126  A    between atoms: _309  and  _311
REMARK  127  A    between atoms: _311  and  _312
REMARK  128  A    between atoms: _311  and  _314
REMARK  129  A    between atoms: _314  and  _315
REMARK                            x       y       z     vdW  Elec       q    Type
REMARK                         _______ _______ _______ _____ _____    ______ ____
ROOT
ATOM      1  CA  ASP A   2     -40.883  17.549   6.069  0.00  0.00    +0.160 C 
ENDROOT
BRANCH   1   3
ATOM      2  C   THR A   1     -38.521  17.996   5.993  0.00  0.00    +0.241 C 
ATOM      3  N   ASP A   2     -39.483  17.081   6.101  0.00  0.00    -0.297 N 
ATOM      4  H   ASP A   2     -39.256  16.071   6.204  0.00  0.00    +0.150 HD
ATOM      5  O   THR A   1     -38.790  19.154   5.786  0.00  0.00    -0.274 OA
BRANCH   2   6
ATOM      6  CA  THR A   1     -37.084  17.600   6.235  0.00  0.00    +0.172 C 
BRANCH   6   7
ATOM      7  N   THR A   1     -36.251  18.826   6.093  0.00  0.00    -0.236 NA
ATOM      8  H   THR A   1     -36.571  19.727   6.503  0.00  0.00    +0.142 HD
ENDBRANCH   6   7
BRANCH   6   9
ATOM      9  CB  THR A   1     -37.078  17.045   7.673  0.00  0.00    +0.135 C 
ATOM     10  CG2 THR A   1     -35.689  16.604   8.157  0.00  0.00    +0.034 C 
BRANCH   9  11
ATOM     11  OG1 THR A   1     -37.588  18.049   8.533  0.00  0.00    -0.383 OA
ATOM     12  HG1 THR A   1     -37.593  17.713   9.464  0.00  0.00    +0.210 HD
ENDBRANCH   9  11
ENDBRANCH   6   9
ENDBRANCH   2   6
ENDBRANCH   1   3
BRANCH   1  13
ATOM     13  C   ASP A   2     -41.337  18.494   7.194  0.00  0.00    +0.241 C 
ATOM     14  N   SER A   3     -40.601  18.546   8.312  0.00  0.00    -0.295 N 
ATOM     15  H   SER A   3     -39.778  17.917   8.407  0.00  0.00    +0.150 HD
ATOM     16  O   ASP A   2     -42.389  19.114   7.056  0.00  0.00    -0.273 OA
BRANCH  14  17
ATOM     17  CA  SER A   3     -40.928  19.471   9.410  0.00  0.00    +0.178 C 
BRANCH  17  18
ATOM     18  C   SER A   3     -40.575  20.932   9.182  0.00  0.00    +0.243 C 
ATOM     19  O   SER A   3     -41.187  21.813   9.781  0.00  0.00    -0.273 OA
ATOM     20  N   GLY A   4     -39.555  21.167   8.359  0.00  0.00    -0.296 N 
ATOM     21  H   GLY A   4     -39.110  20.355   7.885  0.00  0.00    +0.150 HD
BRANCH  20  22
ATOM     22  CA  GLY A   4     -39.036  22.472   8.089  0.00  0.00    +0.163 C 
BRANCH  22  23
ATOM     23  C   GLY A   4     -37.516  22.385   7.975  0.00  0.00    +0.229 C 
ATOM     24  O   GLY A   4     -36.949  21.404   7.430  0.00  0.00    -0.286 OA
ENDBRANCH  22  23
ENDBRANCH  20  22
ENDBRANCH  17  18
BRANCH  17  25
ATOM     25  CB  SER A   3     -40.168  19.052  10.642  0.00  0.00    +0.166 C 
BRANCH  25  26
ATOM     26  OG  SER A   3     -40.556  17.748  10.975  0.00  0.00    -0.380 OA
ATOM     27  H   SER A   3     -41.530  17.730  11.153  0.00  0.00    +0.211 HD
ENDBRANCH  25  26
ENDBRANCH  17  25
ENDBRANCH  14  17
ENDBRANCH   1  13
BRANCH   1  28
ATOM     28  CB  ASP A   2     -41.857  16.385   5.941  0.00  0.00    +0.143 C 
BRANCH  28  29
ATOM     29  CG  ASP A   2     -41.798  15.775   4.558  0.00  0.00    +0.367 C 
ATOM     30  OD2 ASP A   2     -41.896  14.554   4.449  0.00  0.00    -0.246 OA
ATOM     31  OD1 ASP A   2     -41.556  16.539   3.592  0.00  0.00    -0.246 OA
ENDBRANCH  28  29
ENDBRANCH   1  28
TORSDOF 14
REMARK  Name = ../refined-set-2016/2xp7/2xp7_pocket.pdb
REMARK  129 active torsions:
REMARK  status: ('A' for Active; 'I' for Inactive)
REMARK    1  A    between atoms: _1  and  _3
REMARK    2  A    between atoms: _3  and  _4
REMARK    3  A    between atoms: _3  and  _6
REMARK    4  A    between atoms: _6  and  _7
REMARK    5  A    between atoms: _12  and  _14
REMARK    6  A    between atoms: _14  and  _15
REMARK    7  A    between atoms: _14  and  _17
REMARK    8  A    between atoms: _17  and  _18
REMARK    9  A    between atoms: _21  and  _23
REMARK   10  A    between atoms: _23  and  _24
REMARK   11  A    between atoms: _23  and  _26
REMARK   12  A    between atoms: _26  and  _27
REMARK   13  A    between atoms: _27  and  _28
REMARK   14  A    between atoms: _28  and  _29
REMARK   15  A    between atoms: _29  and  _30
REMARK   16  A    between atoms: _34  and  _36
REMARK   17  A    between atoms: _36  and  _37
REMARK   18  A    between atoms: _36  and  _39
REMARK   19  A    between atoms: _39  and  _40
REMARK   20  A    between atoms: _42  and  _44
REMARK   21  A    between atoms: _44  and  _45
REMARK   22  A    between atoms: _44  and  _47
REMARK   23  A    between atoms: _48  and  _49
REMARK   24  A    between atoms: _49  and  _50
REMARK   25  A    between atoms: _59  and  _61
REMARK   26  A    between atoms: _61  and  _62
REMARK   27  A    between atoms: _61  and  _64
REMARK   28  A    between atoms: _65  and  _66
REMARK   29  A    between atoms: _66  and  _67
REMARK   30  A    between atoms: _77  and  _78
REMARK   31  A    between atoms: _83  and  _85
REMARK   32  A    between atoms: _85  and  _86
REMARK   33  A    between atoms: _85  and  _88
REMARK   34  A    between atoms: _88  and  _89
REMARK   35  A    between atoms: _91  and  _93
REMARK   36  A    between atoms: _93  and  _94
REMARK   37  A    between atoms: _93  and  _96
REMARK   38  A    between atoms: _96  and  _97
REMARK   39  A    between atoms: _99  and  _101
REMARK   40  A    between atoms: _101  and  _102
REMARK   41  A    between atoms: _101  and  _104
REMARK   42  A    between atoms: _104  and  _105
REMARK   43  A    between atoms: _115  and  _117
REMARK   44  A    between atoms: _117  and  _118
REMARK   45  A    between atoms: _117  and  _120
REMARK   46  A    between atoms: _120  and  _121
REMARK   47  A    between atoms: _121  and  _122
REMARK   48  A    between atoms: _122  and  _123
REMARK   49  A    between atoms: _132  and  _134
REMARK   50  A    between atoms: _134  and  _135
REMARK   51  A    between atoms: _134  and  _137
REMARK   52  A    between atoms: _137  and  _138
REMARK   53  A    between atoms: _140  and  _142
REMARK   54  A    between atoms: _142  and  _143
REMARK   55  A    between atoms: _142  and  _145
REMARK   56  A    between atoms: _145  and  _146
REMARK   57  A    between atoms: _149  and  _151
REMARK   58  A    between atoms: _151  and  _152
REMARK   59  A    between atoms: _151  and  _154
REMARK   60  A    between atoms: _156  and  _158
REMARK   61  A    between atoms: _158  and  _159
REMARK   62  A    between atoms: _158  and  _161
REMARK   63  A    between atoms: _161  and  _162
REMARK   64  A    between atoms: _164  and  _166
REMARK   65  A    between atoms: _166  and  _167
REMARK   66  A    between atoms: _166  and  _169
REMARK   67  A    between atoms: _169  and  _170
REMARK   68  A    between atoms: _172  and  _174
REMARK   69  A    between atoms: _174  and  _175
REMARK   70  A    between atoms: _178  and  _180
REMARK   71  A    between atoms: _180  and  _181
REMARK   72  A    between atoms: _183  and  _185
REMARK   73  A    between atoms: _185  and  _186
REMARK   74  A    between atoms: _185  and  _188
REMARK   75  A    between atoms: _188  and  _189
REMARK   76  A    between atoms: _192  and  _194
REMARK   77  A    between atoms: _194  and  _195
REMARK   78  A    between atoms: _194  and  _197
REMARK   79  A    between atoms: _197  and  _198
REMARK   80  A    between atoms: _204  and  _206
REMARK   81  A    between atoms: _206  and  _207
REMARK   82  A    between atoms: _206  and  _209
REMARK   83  A    between atoms: _209  and  _210
REMARK   84  A    between atoms: _210  and  _211
REMARK   85  A    between atoms: _216  and  _218
REMARK   86  A    between atoms: _218  and  _219
REMARK   87  A    between atoms: _218  and  _221
REMARK   88  A    between atoms: _221  and  _222
REMARK   89  A    between atoms: _222  and  _223
REMARK   90  A    between atoms: _225  and  _227
REMARK   91  A    between atoms: _227  and  _228
REMARK   92  A    between atoms: _227  and  _230
REMARK   93  A    between atoms: _230  and  _231
REMARK   94  A    between atoms: _231  and  _232
REMARK   95  A    between atoms: _237  and  _239
REMARK   96  A    between atoms: _239  and  _240
REMARK   97  A    between atoms: _239  and  _242
REMARK   98  A    between atoms: _242  and  _243
REMARK   99  A    between atoms: _249  and  _251
REMARK  100  A    between atoms: _251  and  _252
REMARK  101  A    between atoms: _251  and  _254
REMARK  102  A    between atoms: _254  and  _255
REMARK  103  A    between atoms: _255  and  _256
REMARK  104  A    between atoms: _259  and  _261
REMARK  105  A    between atoms: _261  and  _262
REMARK  106  A    between atoms: _261  and  _264
REMARK  107  A    between atoms: _264  and  _265
REMARK  108  A    between atoms: _267  and  _269
REMARK  109  A    between atoms: _269  and  _270
REMARK  110  A    between atoms: _269  and  _272
REMARK  111  A    between atoms: _272  and  _273
REMARK  112  A    between atoms: _276  and  _278
REMARK  113  A    between atoms: _278  and  _279
REMARK  114  A    between atoms: _278  and  _281
REMARK  115  A    between atoms: _281  and  _282
REMARK  116  A    between atoms: _285  and  _287
REMARK  117  A    between atoms: _287  and  _288
REMARK  118  A    between atoms: _287  and  _290
REMARK  119  A    between atoms: _290  and  _291
REMARK  120  A    between atoms: _293  and  _295
REMARK  121  A    between atoms: _295  and  _296
REMARK  122  A    between atoms: _298  and  _300
REMARK  123  A    between atoms: _300  and  _301
REMARK  124  A    between atoms: _300  and  _303
REMARK  125  A    between atoms: _303  and  _304
REMARK  126  A    between atoms: _309  and  _311
REMARK  127  A    between atoms: _311  and  _312
REMARK  128  A    between atoms: _311  and  _314
REMARK  129  A    between atoms: _314  and  _315
REMARK                            x       y       z     vdW  Elec       q    Type
REMARK                         _______ _______ _______ _____ _____    ______ ____
ROOT
ATOM      1  CB  HIS A   1     -32.987  20.738  11.377  0.00  0.00    +0.072 C 
ENDROOT
BRANCH   1   2
ATOM      2  CG  HIS A   1     -34.303  20.029  11.272  0.00  0.00    +0.082 A 
ATOM      3  ND1 HIS A   1     -35.000  19.605  12.379  0.00  0.00    -0.227 NA
ATOM      4  CE1 HIS A   1     -36.114  19.005  11.994  0.00  0.00    +0.199 A 
ATOM      5  NE2 HIS A   1     -36.169  19.028  10.677  0.00  0.00    -0.221 NA
ATOM      6  CD2 HIS A   1     -35.041  19.652  10.194  0.00  0.00    +0.115 A 
ENDBRANCH   1   2
BRANCH   1   7
ATOM      7  CA  HIS A   1     -33.045  22.243  11.119  0.00  0.00    +0.139 C 
BRANCH   7   8
ATOM      8  N   HIS A   1     -33.749  22.537   9.851  0.00  0.00    -0.239 NA
ATOM      9  H   HIS A   1     -33.432  22.045   8.991  0.00  0.00    +0.142 HD
ENDBRANCH   7   8
BRANCH   7  10
ATOM     10  C   HIS A   1     -31.572  22.703  11.114  0.00  0.00    +0.224 C 
ATOM     11  O   HIS A   1     -30.902  22.699  10.069  0.00  0.00    -0.287 OA
ENDBRANCH   7  10
ENDBRANCH   1   7
TORSDOF 4
REMARK  Name = ../refined-set-2016/2xp7/2xp7_pocket.pdb
REMARK  129 active torsions:
REMARK  status: ('A' for Active; 'I' for Inactive)
REMARK    1  A    between atoms: _1  and  _3
REMARK    2  A    between atoms: _3  and  _4
REMARK    3  A    between atoms: _3  and  _6
REMARK    4  A    between atoms: _6  and  _7
REMARK    5  A    between atoms: _12  and  _14
REMARK    6  A    between atoms: _14  and  _15
REMARK    7  A    between atoms: _14  and  _17
REMARK    8  A    between atoms: _17  and  _18
REMARK    9  A    between atoms: _21  and  _23
REMARK   10  A    between atoms: _23  and  _24
REMARK   11  A    between atoms: _23  and  _26
REMARK   12  A    between atoms: _26  and  _27
REMARK   13  A    between atoms: _27  and  _28
REMARK   14  A    between atoms: _28  and  _29
REMARK   15  A    between atoms: _29  and  _30
REMARK   16  A    between atoms: _34  and  _36
REMARK   17  A    between atoms: _36  and  _37
REMARK   18  A    between atoms: _36  and  _39
REMARK   19  A    between atoms: _39  and  _40
REMARK   20  A    between atoms: _42  and  _44
REMARK   21  A    between atoms: _44  and  _45
REMARK   22  A    between atoms: _44  and  _47
REMARK   23  A    between atoms: _48  and  _49
REMARK   24  A    between atoms: _49  and  _50
REMARK   25  A    between atoms: _59  and  _61
REMARK   26  A    between atoms: _61  and  _62
REMARK   27  A    between atoms: _61  and  _64
REMARK   28  A    between atoms: _65  and  _66
REMARK   29  A    between atoms: _66  and  _67
REMARK   30  A    between atoms: _77  and  _78
REMARK   31  A    between atoms: _83  and  _85
REMARK   32  A    between atoms: _85  and  _86
REMARK   33  A    between atoms: _85  and  _88
REMARK   34  A    between atoms: _88  and  _89
REMARK   35  A    between atoms: _91  and  _93
REMARK   36  A    between atoms: _93  and  _94
REMARK   37  A    between atoms: _93  and  _96
REMARK   38  A    between atoms: _96  and  _97
REMARK   39  A    between atoms: _99  and  _101
REMARK   40  A    between atoms: _101  and  _102
REMARK   41  A    between atoms: _101  and  _104
REMARK   42  A    between atoms: _104  and  _105
REMARK   43  A    between atoms: _115  and  _117
REMARK   44  A    between atoms: _117  and  _118
REMARK   45  A    between atoms: _117  and  _120
REMARK   46  A    between atoms: _120  and  _121
REMARK   47  A    between atoms: _121  and  _122
REMARK   48  A    between atoms: _122  and  _123
REMARK   49  A    between atoms: _132  and  _134
REMARK   50  A    between atoms: _134  and  _135
REMARK   51  A    between atoms: _134  and  _137
REMARK   52  A    between atoms: _137  and  _138
REMARK   53  A    between atoms: _140  and  _142
REMARK   54  A    between atoms: _142  and  _143
REMARK   55  A    between atoms: _142  and  _145
REMARK   56  A    between atoms: _145  and  _146
REMARK   57  A    between atoms: _149  and  _151
REMARK   58  A    between atoms: _151  and  _152
REMARK   59  A    between atoms: _151  and  _154
REMARK   60  A    between atoms: _156  and  _158
REMARK   61  A    between atoms: _158  and  _159
REMARK   62  A    between atoms: _158  and  _161
REMARK   63  A    between atoms: _161  and  _162
REMARK   64  A    between atoms: _164  and  _166
REMARK   65  A    between atoms: _166  and  _167
REMARK   66  A    between atoms: _166  and  _169
REMARK   67  A    between atoms: _169  and  _170
REMARK   68  A    between atoms: _172  and  _174
REMARK   69  A    between atoms: _174  and  _175
REMARK   70  A    between atoms: _178  and  _180
REMARK   71  A    between atoms: _180  and  _181
REMARK   72  A    between atoms: _183  and  _185
REMARK   73  A    between atoms: _185  and  _186
REMARK   74  A    between atoms: _185  and  _188
REMARK   75  A    between atoms: _188  and  _189
REMARK   76  A    between atoms: _192  and  _194
REMARK   77  A    between atoms: _194  and  _195
REMARK   78  A    between atoms: _194  and  _197
REMARK   79  A    between atoms: _197  and  _198
REMARK   80  A    between atoms: _204  and  _206
REMARK   81  A    between atoms: _206  and  _207
REMARK   82  A    between atoms: _206  and  _209
REMARK   83  A    between atoms: _209  and  _210
REMARK   84  A    between atoms: _210  and  _211
REMARK   85  A    between atoms: _216  and  _218
REMARK   86  A    between atoms: _218  and  _219
REMARK   87  A    between atoms: _218  and  _221
REMARK   88  A    between atoms: _221  and  _222
REMARK   89  A    between atoms: _222  and  _223
REMARK   90  A    between atoms: _225  and  _227
REMARK   91  A    between atoms: _227  and  _228
REMARK   92  A    between atoms: _227  and  _230
REMARK   93  A    between atoms: _230  and  _231
REMARK   94  A    between atoms: _231  and  _232
REMARK   95  A    between atoms: _237  and  _239
REMARK   96  A    between atoms: _239  and  _240
REMARK   97  A    between atoms: _239  and  _242
REMARK   98  A    between atoms: _242  and  _243
REMARK   99  A    between atoms: _249  and  _251
REMARK  100  A    between atoms: _251  and  _252
REMARK  101  A    between atoms: _251  and  _254
REMARK  102  A    between atoms: _254  and  _255
REMARK  103  A    between atoms: _255  and  _256
REMARK  104  A    between atoms: _259  and  _261
REMARK  105  A    between atoms: _261  and  _262
REMARK  106  A    between atoms: _261  and  _264
REMARK  107  A    between atoms: _264  and  _265
REMARK  108  A    between atoms: _267  and  _269
REMARK  109  A    between atoms: _269  and  _270
REMARK  110  A    between atoms: _269  and  _272
REMARK  111  A    between atoms: _272  and  _273
REMARK  112  A    between atoms: _276  and  _278
REMARK  113  A    between atoms: _278  and  _279
REMARK  114  A    between atoms: _278  and  _281
REMARK  115  A    between atoms: _281  and  _282
REMARK  116  A    between atoms: _285  and  _287
REMARK  117  A    between atoms: _287  and  _288
REMARK  118  A    between atoms: _287  and  _290
REMARK  119  A    between atoms: _290  and  _291
REMARK  120  A    between atoms: _293  and  _295
REMARK  121  A    between atoms: _295  and  _296
REMARK  122  A    between atoms: _298  and  _300
REMARK  123  A    between atoms: _300  and  _301
REMARK  124  A    between atoms: _300  and  _303
REMARK  125  A    between atoms: _303  and  _304
REMARK  126  A    between atoms: _309  and  _311
REMARK  127  A    between atoms: _311  and  _312
REMARK  128  A    between atoms: _311  and  _314
REMARK  129  A    between atoms: _314  and  _315
REMARK                            x       y       z     vdW  Elec       q    Type
REMARK                         _______ _______ _______ _____ _____    ______ ____
ROOT
ATOM      1  CA  ILE A   1     -28.515  19.973  14.348  0.00  0.00    +0.133 C 
ENDROOT
BRANCH   1   2
ATOM      2  N   ILE A   1     -28.624  21.120  13.450  0.00  0.00    -0.239 NA
ATOM      3  H   ILE A   1     -27.952  21.210  12.661  0.00  0.00    +0.142 HD
ENDBRANCH   1   2
BRANCH   1   4
ATOM      4  C   ILE A   1     -27.149  20.018  15.078  0.00  0.00    +0.224 C 
ATOM      5  O   ILE A   1     -26.153  20.272  14.429  0.00  0.00    -0.287 OA
ENDBRANCH   1   4
BRANCH   1   6
ATOM      6  CB  ILE A   1     -28.666  18.645  13.569  0.00  0.00    +0.023 C 
ATOM      7  CG2 ILE A   1     -28.554  17.454  14.475  0.00  0.00    +0.002 C 
BRANCH   6   8
ATOM      8  CG1 ILE A   1     -30.033  18.596  12.849  0.00  0.00    +0.002 C 
ATOM      9  CD1 ILE A   1     -30.176  17.447  11.802  0.00  0.00    +0.000 C 
ENDBRANCH   6   8
ENDBRANCH   1   6
TORSDOF 4
REMARK  Name = ../refined-set-2016/2xp7/2xp7_pocket.pdb
REMARK  129 active torsions:
REMARK  status: ('A' for Active; 'I' for Inactive)
REMARK    1  A    between atoms: _1  and  _3
REMARK    2  A    between atoms: _3  and  _4
REMARK    3  A    between atoms: _3  and  _6
REMARK    4  A    between atoms: _6  and  _7
REMARK    5  A    between atoms: _12  and  _14
REMARK    6  A    between atoms: _14  and  _15
REMARK    7  A    between atoms: _14  and  _17
REMARK    8  A    between atoms: _17  and  _18
REMARK    9  A    between atoms: _21  and  _23
REMARK   10  A    between atoms: _23  and  _24
REMARK   11  A    between atoms: _23  and  _26
REMARK   12  A    between atoms: _26  and  _27
REMARK   13  A    between atoms: _27  and  _28
REMARK   14  A    between atoms: _28  and  _29
REMARK   15  A    between atoms: _29  and  _30
REMARK   16  A    between atoms: _34  and  _36
REMARK   17  A    between atoms: _36  and  _37
REMARK   18  A    between atoms: _36  and  _39
REMARK   19  A    between atoms: _39  and  _40
REMARK   20  A    between atoms: _42  and  _44
REMARK   21  A    between atoms: _44  and  _45
REMARK   22  A    between atoms: _44  and  _47
REMARK   23  A    between atoms: _48  and  _49
REMARK   24  A    between atoms: _49  and  _50
REMARK   25  A    between atoms: _59  and  _61
REMARK   26  A    between atoms: _61  and  _62
REMARK   27  A    between atoms: _61  and  _64
REMARK   28  A    between atoms: _65  and  _66
REMARK   29  A    between atoms: _66  and  _67
REMARK   30  A    between atoms: _77  and  _78
REMARK   31  A    between atoms: _83  and  _85
REMARK   32  A    between atoms: _85  and  _86
REMARK   33  A    between atoms: _85  and  _88
REMARK   34  A    between atoms: _88  and  _89
REMARK   35  A    between atoms: _91  and  _93
REMARK   36  A    between atoms: _93  and  _94
REMARK   37  A    between atoms: _93  and  _96
REMARK   38  A    between atoms: _96  and  _97
REMARK   39  A    between atoms: _99  and  _101
REMARK   40  A    between atoms: _101  and  _102
REMARK   41  A    between atoms: _101  and  _104
REMARK   42  A    between atoms: _104  and  _105
REMARK   43  A    between atoms: _115  and  _117
REMARK   44  A    between atoms: _117  and  _118
REMARK   45  A    between atoms: _117  and  _120
REMARK   46  A    between atoms: _120  and  _121
REMARK   47  A    between atoms: _121  and  _122
REMARK   48  A    between atoms: _122  and  _123
REMARK   49  A    between atoms: _132  and  _134
REMARK   50  A    between atoms: _134  and  _135
REMARK   51  A    between atoms: _134  and  _137
REMARK   52  A    between atoms: _137  and  _138
REMARK   53  A    between atoms: _140  and  _142
REMARK   54  A    between atoms: _142  and  _143
REMARK   55  A    between atoms: _142  and  _145
REMARK   56  A    between atoms: _145  and  _146
REMARK   57  A    between atoms: _149  and  _151
REMARK   58  A    between atoms: _151  and  _152
REMARK   59  A    between atoms: _151  and  _154
REMARK   60  A    between atoms: _156  and  _158
REMARK   61  A    between atoms: _158  and  _159
REMARK   62  A    between atoms: _158  and  _161
REMARK   63  A    between atoms: _161  and  _162
REMARK   64  A    between atoms: _164  and  _166
REMARK   65  A    between atoms: _166  and  _167
REMARK   66  A    between atoms: _166  and  _169
REMARK   67  A    between atoms: _169  and  _170
REMARK   68  A    between atoms: _172  and  _174
REMARK   69  A    between atoms: _174  and  _175
REMARK   70  A    between atoms: _178  and  _180
REMARK   71  A    between atoms: _180  and  _181
REMARK   72  A    between atoms: _183  and  _185
REMARK   73  A    between atoms: _185  and  _186
REMARK   74  A    between atoms: _185  and  _188
REMARK   75  A    between atoms: _188  and  _189
REMARK   76  A    between atoms: _192  and  _194
REMARK   77  A    between atoms: _194  and  _195
REMARK   78  A    between atoms: _194  and  _197
REMARK   79  A    between atoms: _197  and  _198
REMARK   80  A    between atoms: _204  and  _206
REMARK   81  A    between atoms: _206  and  _207
REMARK   82  A    between atoms: _206  and  _209
REMARK   83  A    between atoms: _209  and  _210
REMARK   84  A    between atoms: _210  and  _211
REMARK   85  A    between atoms: _216  and  _218
REMARK   86  A    between atoms: _218  and  _219
REMARK   87  A    between atoms: _218  and  _221
REMARK   88  A    between atoms: _221  and  _222
REMARK   89  A    between atoms: _222  and  _223
REMARK   90  A    between atoms: _225  and  _227
REMARK   91  A    between atoms: _227  and  _228
REMARK   92  A    between atoms: _227  and  _230
REMARK   93  A    between atoms: _230  and  _231
REMARK   94  A    between atoms: _231  and  _232
REMARK   95  A    between atoms: _237  and  _239
REMARK   96  A    between atoms: _239  and  _240
REMARK   97  A    between atoms: _239  and  _242
REMARK   98  A    between atoms: _242  and  _243
REMARK   99  A    between atoms: _249  and  _251
REMARK  100  A    between atoms: _251  and  _252
REMARK  101  A    between atoms: _251  and  _254
REMARK  102  A    between atoms: _254  and  _255
REMARK  103  A    between atoms: _255  and  _256
REMARK  104  A    between atoms: _259  and  _261
REMARK  105  A    between atoms: _261  and  _262
REMARK  106  A    between atoms: _261  and  _264
REMARK  107  A    between atoms: _264  and  _265
REMARK  108  A    between atoms: _267  and  _269
REMARK  109  A    between atoms: _269  and  _270
REMARK  110  A    between atoms: _269  and  _272
REMARK  111  A    between atoms: _272  and  _273
REMARK  112  A    between atoms: _276  and  _278
REMARK  113  A    between atoms: _278  and  _279
REMARK  114  A    between atoms: _278  and  _281
REMARK  115  A    between atoms: _281  and  _282
REMARK  116  A    between atoms: _285  and  _287
REMARK  117  A    between atoms: _287  and  _288
REMARK  118  A    between atoms: _287  and  _290
REMARK  119  A    between atoms: _290  and  _291
REMARK  120  A    between atoms: _293  and  _295
REMARK  121  A    between atoms: _295  and  _296
REMARK  122  A    between atoms: _298  and  _300
REMARK  123  A    between atoms: _300  and  _301
REMARK  124  A    between atoms: _300  and  _303
REMARK  125  A    between atoms: _303  and  _304
REMARK  126  A    between atoms: _309  and  _311
REMARK  127  A    between atoms: _311  and  _312
REMARK  128  A    between atoms: _311  and  _314
REMARK  129  A    between atoms: _314  and  _315
REMARK                            x       y       z     vdW  Elec       q    Type
REMARK                         _______ _______ _______ _____ _____    ______ ____
ROOT
ATOM      1  O   HOH     1     -51.007  20.999  11.906  0.00  0.00    +0.000 OA
ENDROOT
TORSDOF 0
REMARK  Name = ../refined-set-2016/2xp7/2xp7_pocket.pdb
REMARK  129 active torsions:
REMARK  status: ('A' for Active; 'I' for Inactive)
REMARK    1  A    between atoms: _1  and  _3
REMARK    2  A    between atoms: _3  and  _4
REMARK    3  A    between atoms: _3  and  _6
REMARK    4  A    between atoms: _6  and  _7
REMARK    5  A    between atoms: _12  and  _14
REMARK    6  A    between atoms: _14  and  _15
REMARK    7  A    between atoms: _14  and  _17
REMARK    8  A    between atoms: _17  and  _18
REMARK    9  A    between atoms: _21  and  _23
REMARK   10  A    between atoms: _23  and  _24
REMARK   11  A    between atoms: _23  and  _26
REMARK   12  A    between atoms: _26  and  _27
REMARK   13  A    between atoms: _27  and  _28
REMARK   14  A    between atoms: _28  and  _29
REMARK   15  A    between atoms: _29  and  _30
REMARK   16  A    between atoms: _34  and  _36
REMARK   17  A    between atoms: _36  and  _37
REMARK   18  A    between atoms: _36  and  _39
REMARK   19  A    between atoms: _39  and  _40
REMARK   20  A    between atoms: _42  and  _44
REMARK   21  A    between atoms: _44  and  _45
REMARK   22  A    between atoms: _44  and  _47
REMARK   23  A    between atoms: _48  and  _49
REMARK   24  A    between atoms: _49  and  _50
REMARK   25  A    between atoms: _59  and  _61
REMARK   26  A    between atoms: _61  and  _62
REMARK   27  A    between atoms: _61  and  _64
REMARK   28  A    between atoms: _65  and  _66
REMARK   29  A    between atoms: _66  and  _67
REMARK   30  A    between atoms: _77  and  _78
REMARK   31  A    between atoms: _83  and  _85
REMARK   32  A    between atoms: _85  and  _86
REMARK   33  A    between atoms: _85  and  _88
REMARK   34  A    between atoms: _88  and  _89
REMARK   35  A    between atoms: _91  and  _93
REMARK   36  A    between atoms: _93  and  _94
REMARK   37  A    between atoms: _93  and  _96
REMARK   38  A    between atoms: _96  and  _97
REMARK   39  A    between atoms: _99  and  _101
REMARK   40  A    between atoms: _101  and  _102
REMARK   41  A    between atoms: _101  and  _104
REMARK   42  A    between atoms: _104  and  _105
REMARK   43  A    between atoms: _115  and  _117
REMARK   44  A    between atoms: _117  and  _118
REMARK   45  A    between atoms: _117  and  _120
REMARK   46  A    between atoms: _120  and  _121
REMARK   47  A    between atoms: _121  and  _122
REMARK   48  A    between atoms: _122  and  _123
REMARK   49  A    between atoms: _132  and  _134
REMARK   50  A    between atoms: _134  and  _135
REMARK   51  A    between atoms: _134  and  _137
REMARK   52  A    between atoms: _137  and  _138
REMARK   53  A    between atoms: _140  and  _142
REMARK   54  A    between atoms: _142  and  _143
REMARK   55  A    between atoms: _142  and  _145
REMARK   56  A    between atoms: _145  and  _146
REMARK   57  A    between atoms: _149  and  _151
REMARK   58  A    between atoms: _151  and  _152
REMARK   59  A    between atoms: _151  and  _154
REMARK   60  A    between atoms: _156  and  _158
REMARK   61  A    between atoms: _158  and  _159
REMARK   62  A    between atoms: _158  and  _161
REMARK   63  A    between atoms: _161  and  _162
REMARK   64  A    between atoms: _164  and  _166
REMARK   65  A    between atoms: _166  and  _167
REMARK   66  A    between atoms: _166  and  _169
REMARK   67  A    between atoms: _169  and  _170
REMARK   68  A    between atoms: _172  and  _174
REMARK   69  A    between atoms: _174  and  _175
REMARK   70  A    between atoms: _178  and  _180
REMARK   71  A    between atoms: _180  and  _181
REMARK   72  A    between atoms: _183  and  _185
REMARK   73  A    between atoms: _185  and  _186
REMARK   74  A    between atoms: _185  and  _188
REMARK   75  A    between atoms: _188  and  _189
REMARK   76  A    between atoms: _192  and  _194
REMARK   77  A    between atoms: _194  and  _195
REMARK   78  A    between atoms: _194  and  _197
REMARK   79  A    between atoms: _197  and  _198
REMARK   80  A    between atoms: _204  and  _206
REMARK   81  A    between atoms: _206  and  _207
REMARK   82  A    between atoms: _206  and  _209
REMARK   83  A    between atoms: _209  and  _210
REMARK   84  A    between atoms: _210  and  _211
REMARK   85  A    between atoms: _216  and  _218
REMARK   86  A    between atoms: _218  and  _219
REMARK   87  A    between atoms: _218  and  _221
REMARK   88  A    between atoms: _221  and  _222
REMARK   89  A    between atoms: _222  and  _223
REMARK   90  A    between atoms: _225  and  _227
REMARK   91  A    between atoms: _227  and  _228
REMARK   92  A    between atoms: _227  and  _230
REMARK   93  A    between atoms: _230  and  _231
REMARK   94  A    between atoms: _231  and  _232
REMARK   95  A    between atoms: _237  and  _239
REMARK   96  A    between atoms: _239  and  _240
REMARK   97  A    between atoms: _239  and  _242
REMARK   98  A    between atoms: _242  and  _243
REMARK   99  A    between atoms: _249  and  _251
REMARK  100  A    between atoms: _251  and  _252
REMARK  101  A    between atoms: _251  and  _254
REMARK  102  A    between atoms: _254  and  _255
REMARK  103  A    between atoms: _255  and  _256
REMARK  104  A    between atoms: _259  and  _261
REMARK  105  A    between atoms: _261  and  _262
REMARK  106  A    between atoms: _261  and  _264
REMARK  107  A    between atoms: _264  and  _265
REMARK  108  A    between atoms: _267  and  _269
REMARK  109  A    between atoms: _269  and  _270
REMARK  110  A    between atoms: _269  and  _272
REMARK  111  A    between atoms: _272  and  _273
REMARK  112  A    between atoms: _276  and  _278
REMARK  113  A    between atoms: _278  and  _279
REMARK  114  A    between atoms: _278  and  _281
REMARK  115  A    between atoms: _281  and  _282
REMARK  116  A    between atoms: _285  and  _287
REMARK  117  A    between atoms: _287  and  _288
REMARK  118  A    between atoms: _287  and  _290
REMARK  119  A    between atoms: _290  and  _291
REMARK  120  A    between atoms: _293  and  _295
REMARK  121  A    between atoms: _295  and  _296
REMARK  122  A    between atoms: _298  and  _300
REMARK  123  A    between atoms: _300  and  _301
REMARK  124  A    between atoms: _300  and  _303
REMARK  125  A    between atoms: _303  and  _304
REMARK  126  A    between atoms: _309  and  _311
REMARK  127  A    between atoms: _311  and  _312
REMARK  128  A    between atoms: _311  and  _314
REMARK  129  A    between atoms: _314  and  _315
REMARK                            x       y       z     vdW  Elec       q    Type
REMARK                         _______ _______ _______ _____ _____    ______ ____
ROOT
ATOM      1  O   HOH     1     -39.407  16.963  22.601  0.00  0.00    +0.000 OA
ENDROOT
TORSDOF 0
REMARK  Name = ../refined-set-2016/2xp7/2xp7_pocket.pdb
REMARK  129 active torsions:
REMARK  status: ('A' for Active; 'I' for Inactive)
REMARK    1  A    between atoms: _1  and  _3
REMARK    2  A    between atoms: _3  and  _4
REMARK    3  A    between atoms: _3  and  _6
REMARK    4  A    between atoms: _6  and  _7
REMARK    5  A    between atoms: _12  and  _14
REMARK    6  A    between atoms: _14  and  _15
REMARK    7  A    between atoms: _14  and  _17
REMARK    8  A    between atoms: _17  and  _18
REMARK    9  A    between atoms: _21  and  _23
REMARK   10  A    between atoms: _23  and  _24
REMARK   11  A    between atoms: _23  and  _26
REMARK   12  A    between atoms: _26  and  _27
REMARK   13  A    between atoms: _27  and  _28
REMARK   14  A    between atoms: _28  and  _29
REMARK   15  A    between atoms: _29  and  _30
REMARK   16  A    between atoms: _34  and  _36
REMARK   17  A    between atoms: _36  and  _37
REMARK   18  A    between atoms: _36  and  _39
REMARK   19  A    between atoms: _39  and  _40
REMARK   20  A    between atoms: _42  and  _44
REMARK   21  A    between atoms: _44  and  _45
REMARK   22  A    between atoms: _44  and  _47
REMARK   23  A    between atoms: _48  and  _49
REMARK   24  A    between atoms: _49  and  _50
REMARK   25  A    between atoms: _59  and  _61
REMARK   26  A    between atoms: _61  and  _62
REMARK   27  A    between atoms: _61  and  _64
REMARK   28  A    between atoms: _65  and  _66
REMARK   29  A    between atoms: _66  and  _67
REMARK   30  A    between atoms: _77  and  _78
REMARK   31  A    between atoms: _83  and  _85
REMARK   32  A    between atoms: _85  and  _86
REMARK   33  A    between atoms: _85  and  _88
REMARK   34  A    between atoms: _88  and  _89
REMARK   35  A    between atoms: _91  and  _93
REMARK   36  A    between atoms: _93  and  _94
REMARK   37  A    between atoms: _93  and  _96
REMARK   38  A    between atoms: _96  and  _97
REMARK   39  A    between atoms: _99  and  _101
REMARK   40  A    between atoms: _101  and  _102
REMARK   41  A    between atoms: _101  and  _104
REMARK   42  A    between atoms: _104  and  _105
REMARK   43  A    between atoms: _115  and  _117
REMARK   44  A    between atoms: _117  and  _118
REMARK   45  A    between atoms: _117  and  _120
REMARK   46  A    between atoms: _120  and  _121
REMARK   47  A    between atoms: _121  and  _122
REMARK   48  A    between atoms: _122  and  _123
REMARK   49  A    between atoms: _132  and  _134
REMARK   50  A    between atoms: _134  and  _135
REMARK   51  A    between atoms: _134  and  _137
REMARK   52  A    between atoms: _137  and  _138
REMARK   53  A    between atoms: _140  and  _142
REMARK   54  A    between atoms: _142  and  _143
REMARK   55  A    between atoms: _142  and  _145
REMARK   56  A    between atoms: _145  and  _146
REMARK   57  A    between atoms: _149  and  _151
REMARK   58  A    between atoms: _151  and  _152
REMARK   59  A    between atoms: _151  and  _154
REMARK   60  A    between atoms: _156  and  _158
REMARK   61  A    between atoms: _158  and  _159
REMARK   62  A    between atoms: _158  and  _161
REMARK   63  A    between atoms: _161  and  _162
REMARK   64  A    between atoms: _164  and  _166
REMARK   65  A    between atoms: _166  and  _167
REMARK   66  A    between atoms: _166  and  _169
REMARK   67  A    between atoms: _169  and  _170
REMARK   68  A    between atoms: _172  and  _174
REMARK   69  A    between atoms: _174  and  _175
REMARK   70  A    between atoms: _178  and  _180
REMARK   71  A    between atoms: _180  and  _181
REMARK   72  A    between atoms: _183  and  _185
REMARK   73  A    between atoms: _185  and  _186
REMARK   74  A    between atoms: _185  and  _188
REMARK   75  A    between atoms: _188  and  _189
REMARK   76  A    between atoms: _192  and  _194
REMARK   77  A    between atoms: _194  and  _195
REMARK   78  A    between atoms: _194  and  _197
REMARK   79  A    between atoms: _197  and  _198
REMARK   80  A    between atoms: _204  and  _206
REMARK   81  A    between atoms: _206  and  _207
REMARK   82  A    between atoms: _206  and  _209
REMARK   83  A    between atoms: _209  and  _210
REMARK   84  A    between atoms: _210  and  _211
REMARK   85  A    between atoms: _216  and  _218
REMARK   86  A    between atoms: _218  and  _219
REMARK   87  A    between atoms: _218  and  _221
REMARK   88  A    between atoms: _221  and  _222
REMARK   89  A    between atoms: _222  and  _223
REMARK   90  A    between atoms: _225  and  _227
REMARK   91  A    between atoms: _227  and  _228
REMARK   92  A    between atoms: _227  and  _230
REMARK   93  A    between atoms: _230  and  _231
REMARK   94  A    between atoms: _231  and  _232
REMARK   95  A    between atoms: _237  and  _239
REMARK   96  A    between atoms: _239  and  _240
REMARK   97  A    between atoms: _239  and  _242
REMARK   98  A    between atoms: _242  and  _243
REMARK   99  A    between atoms: _249  and  _251
REMARK  100  A    between atoms: _251  and  _252
REMARK  101  A    between atoms: _251  and  _254
REMARK  102  A    between atoms: _254  and  _255
REMARK  103  A    between atoms: _255  and  _256
REMARK  104  A    between atoms: _259  and  _261
REMARK  105  A    between atoms: _261  and  _262
REMARK  106  A    between atoms: _261  and  _264
REMARK  107  A    between atoms: _264  and  _265
REMARK  108  A    between atoms: _267  and  _269
REMARK  109  A    between atoms: _269  and  _270
REMARK  110  A    between atoms: _269  and  _272
REMARK  111  A    between atoms: _272  and  _273
REMARK  112  A    between atoms: _276  and  _278
REMARK  113  A    between atoms: _278  and  _279
REMARK  114  A    between atoms: _278  and  _281
REMARK  115  A    between atoms: _281  and  _282
REMARK  116  A    between atoms: _285  and  _287
REMARK  117  A    between atoms: _287  and  _288
REMARK  118  A    between atoms: _287  and  _290
REMARK  119  A    between atoms: _290  and  _291
REMARK  120  A    between atoms: _293  and  _295
REMARK  121  A    between atoms: _295  and  _296
REMARK  122  A    between atoms: _298  and  _300
REMARK  123  A    between atoms: _300  and  _301
REMARK  124  A    between atoms: _300  and  _303
REMARK  125  A    between atoms: _303  and  _304
REMARK  126  A    between atoms: _309  and  _311
REMARK  127  A    between atoms: _311  and  _312
REMARK  128  A    between atoms: _311  and  _314
REMARK  129  A    between atoms: _314  and  _315
REMARK                            x       y       z     vdW  Elec       q    Type
REMARK                         _______ _______ _______ _____ _____    ______ ____
ROOT
ATOM      1  O   HOH     1     -39.141  13.193  13.760  0.00  0.00    +0.000 OA
ENDROOT
TORSDOF 0
REMARK  Name = ../refined-set-2016/2xp7/2xp7_pocket.pdb
REMARK  129 active torsions:
REMARK  status: ('A' for Active; 'I' for Inactive)
REMARK    1  A    between atoms: _1  and  _3
REMARK    2  A    between atoms: _3  and  _4
REMARK    3  A    between atoms: _3  and  _6
REMARK    4  A    between atoms: _6  and  _7
REMARK    5  A    between atoms: _12  and  _14
REMARK    6  A    between atoms: _14  and  _15
REMARK    7  A    between atoms: _14  and  _17
REMARK    8  A    between atoms: _17  and  _18
REMARK    9  A    between atoms: _21  and  _23
REMARK   10  A    between atoms: _23  and  _24
REMARK   11  A    between atoms: _23  and  _26
REMARK   12  A    between atoms: _26  and  _27
REMARK   13  A    between atoms: _27  and  _28
REMARK   14  A    between atoms: _28  and  _29
REMARK   15  A    between atoms: _29  and  _30
REMARK   16  A    between atoms: _34  and  _36
REMARK   17  A    between atoms: _36  and  _37
REMARK   18  A    between atoms: _36  and  _39
REMARK   19  A    between atoms: _39  and  _40
REMARK   20  A    between atoms: _42  and  _44
REMARK   21  A    between atoms: _44  and  _45
REMARK   22  A    between atoms: _44  and  _47
REMARK   23  A    between atoms: _48  and  _49
REMARK   24  A    between atoms: _49  and  _50
REMARK   25  A    between atoms: _59  and  _61
REMARK   26  A    between atoms: _61  and  _62
REMARK   27  A    between atoms: _61  and  _64
REMARK   28  A    between atoms: _65  and  _66
REMARK   29  A    between atoms: _66  and  _67
REMARK   30  A    between atoms: _77  and  _78
REMARK   31  A    between atoms: _83  and  _85
REMARK   32  A    between atoms: _85  and  _86
REMARK   33  A    between atoms: _85  and  _88
REMARK   34  A    between atoms: _88  and  _89
REMARK   35  A    between atoms: _91  and  _93
REMARK   36  A    between atoms: _93  and  _94
REMARK   37  A    between atoms: _93  and  _96
REMARK   38  A    between atoms: _96  and  _97
REMARK   39  A    between atoms: _99  and  _101
REMARK   40  A    between atoms: _101  and  _102
REMARK   41  A    between atoms: _101  and  _104
REMARK   42  A    between atoms: _104  and  _105
REMARK   43  A    between atoms: _115  and  _117
REMARK   44  A    between atoms: _117  and  _118
REMARK   45  A    between atoms: _117  and  _120
REMARK   46  A    between atoms: _120  and  _121
REMARK   47  A    between atoms: _121  and  _122
REMARK   48  A    between atoms: _122  and  _123
REMARK   49  A    between atoms: _132  and  _134
REMARK   50  A    between atoms: _134  and  _135
REMARK   51  A    between atoms: _134  and  _137
REMARK   52  A    between atoms: _137  and  _138
REMARK   53  A    between atoms: _140  and  _142
REMARK   54  A    between atoms: _142  and  _143
REMARK   55  A    between atoms: _142  and  _145
REMARK   56  A    between atoms: _145  and  _146
REMARK   57  A    between atoms: _149  and  _151
REMARK   58  A    between atoms: _151  and  _152
REMARK   59  A    between atoms: _151  and  _154
REMARK   60  A    between atoms: _156  and  _158
REMARK   61  A    between atoms: _158  and  _159
REMARK   62  A    between atoms: _158  and  _161
REMARK   63  A    between atoms: _161  and  _162
REMARK   64  A    between atoms: _164  and  _166
REMARK   65  A    between atoms: _166  and  _167
REMARK   66  A    between atoms: _166  and  _169
REMARK   67  A    between atoms: _169  and  _170
REMARK   68  A    between atoms: _172  and  _174
REMARK   69  A    between atoms: _174  and  _175
REMARK   70  A    between atoms: _178  and  _180
REMARK   71  A    between atoms: _180  and  _181
REMARK   72  A    between atoms: _183  and  _185
REMARK   73  A    between atoms: _185  and  _186
REMARK   74  A    between atoms: _185  and  _188
REMARK   75  A    between atoms: _188  and  _189
REMARK   76  A    between atoms: _192  and  _194
REMARK   77  A    between atoms: _194  and  _195
REMARK   78  A    between atoms: _194  and  _197
REMARK   79  A    between atoms: _197  and  _198
REMARK   80  A    between atoms: _204  and  _206
REMARK   81  A    between atoms: _206  and  _207
REMARK   82  A    between atoms: _206  and  _209
REMARK   83  A    between atoms: _209  and  _210
REMARK   84  A    between atoms: _210  and  _211
REMARK   85  A    between atoms: _216  and  _218
REMARK   86  A    between atoms: _218  and  _219
REMARK   87  A    between atoms: _218  and  _221
REMARK   88  A    between atoms: _221  and  _222
REMARK   89  A    between atoms: _222  and  _223
REMARK   90  A    between atoms: _225  and  _227
REMARK   91  A    between atoms: _227  and  _228
REMARK   92  A    between atoms: _227  and  _230
REMARK   93  A    between atoms: _230  and  _231
REMARK   94  A    between atoms: _231  and  _232
REMARK   95  A    between atoms: _237  and  _239
REMARK   96  A    between atoms: _239  and  _240
REMARK   97  A    between atoms: _239  and  _242
REMARK   98  A    between atoms: _242  and  _243
REMARK   99  A    between atoms: _249  and  _251
REMARK  100  A    between atoms: _251  and  _252
REMARK  101  A    between atoms: _251  and  _254
REMARK  102  A    between atoms: _254  and  _255
REMARK  103  A    between atoms: _255  and  _256
REMARK  104  A    between atoms: _259  and  _261
REMARK  105  A    between atoms: _261  and  _262
REMARK  106  A    between atoms: _261  and  _264
REMARK  107  A    between atoms: _264  and  _265
REMARK  108  A    between atoms: _267  and  _269
REMARK  109  A    between atoms: _269  and  _270
REMARK  110  A    between atoms: _269  and  _272
REMARK  111  A    between atoms: _272  and  _273
REMARK  112  A    between atoms: _276  and  _278
REMARK  113  A    between atoms: _278  and  _279
REMARK  114  A    between atoms: _278  and  _281
REMARK  115  A    between atoms: _281  and  _282
REMARK  116  A    between atoms: _285  and  _287
REMARK  117  A    between atoms: _287  and  _288
REMARK  118  A    between atoms: _287  and  _290
REMARK  119  A    between atoms: _290  and  _291
REMARK  120  A    between atoms: _293  and  _295
REMARK  121  A    between atoms: _295  and  _296
REMARK  122  A    between atoms: _298  and  _300
REMARK  123  A    between atoms: _300  and  _301
REMARK  124  A    between atoms: _300  and  _303
REMARK  125  A    between atoms: _303  and  _304
REMARK  126  A    between atoms: _309  and  _311
REMARK  127  A    between atoms: _311  and  _312
REMARK  128  A    between atoms: _311  and  _314
REMARK  129  A    between atoms: _314  and  _315
REMARK                            x       y       z     vdW  Elec       q    Type
REMARK                         _______ _______ _______ _____ _____    ______ ____
ROOT
ATOM      1  O   HOH     1     -48.131  16.345   6.549  0.00  0.00    +0.000 OA
ENDROOT
TORSDOF 0
REMARK  Name = ../refined-set-2016/2xp7/2xp7_pocket.pdb
REMARK  129 active torsions:
REMARK  status: ('A' for Active; 'I' for Inactive)
REMARK    1  A    between atoms: _1  and  _3
REMARK    2  A    between atoms: _3  and  _4
REMARK    3  A    between atoms: _3  and  _6
REMARK    4  A    between atoms: _6  and  _7
REMARK    5  A    between atoms: _12  and  _14
REMARK    6  A    between atoms: _14  and  _15
REMARK    7  A    between atoms: _14  and  _17
REMARK    8  A    between atoms: _17  and  _18
REMARK    9  A    between atoms: _21  and  _23
REMARK   10  A    between atoms: _23  and  _24
REMARK   11  A    between atoms: _23  and  _26
REMARK   12  A    between atoms: _26  and  _27
REMARK   13  A    between atoms: _27  and  _28
REMARK   14  A    between atoms: _28  and  _29
REMARK   15  A    between atoms: _29  and  _30
REMARK   16  A    between atoms: _34  and  _36
REMARK   17  A    between atoms: _36  and  _37
REMARK   18  A    between atoms: _36  and  _39
REMARK   19  A    between atoms: _39  and  _40
REMARK   20  A    between atoms: _42  and  _44
REMARK   21  A    between atoms: _44  and  _45
REMARK   22  A    between atoms: _44  and  _47
REMARK   23  A    between atoms: _48  and  _49
REMARK   24  A    between atoms: _49  and  _50
REMARK   25  A    between atoms: _59  and  _61
REMARK   26  A    between atoms: _61  and  _62
REMARK   27  A    between atoms: _61  and  _64
REMARK   28  A    between atoms: _65  and  _66
REMARK   29  A    between atoms: _66  and  _67
REMARK   30  A    between atoms: _77  and  _78
REMARK   31  A    between atoms: _83  and  _85
REMARK   32  A    between atoms: _85  and  _86
REMARK   33  A    between atoms: _85  and  _88
REMARK   34  A    between atoms: _88  and  _89
REMARK   35  A    between atoms: _91  and  _93
REMARK   36  A    between atoms: _93  and  _94
REMARK   37  A    between atoms: _93  and  _96
REMARK   38  A    between atoms: _96  and  _97
REMARK   39  A    between atoms: _99  and  _101
REMARK   40  A    between atoms: _101  and  _102
REMARK   41  A    between atoms: _101  and  _104
REMARK   42  A    between atoms: _104  and  _105
REMARK   43  A    between atoms: _115  and  _117
REMARK   44  A    between atoms: _117  and  _118
REMARK   45  A    between atoms: _117  and  _120
REMARK   46  A    between atoms: _120  and  _121
REMARK   47  A    between atoms: _121  and  _122
REMARK   48  A    between atoms: _122  and  _123
REMARK   49  A    between atoms: _132  and  _134
REMARK   50  A    between atoms: _134  and  _135
REMARK   51  A    between atoms: _134  and  _137
REMARK   52  A    between atoms: _137  and  _138
REMARK   53  A    between atoms: _140  and  _142
REMARK   54  A    between atoms: _142  and  _143
REMARK   55  A    between atoms: _142  and  _145
REMARK   56  A    between atoms: _145  and  _146
REMARK   57  A    between atoms: _149  and  _151
REMARK   58  A    between atoms: _151  and  _152
REMARK   59  A    between atoms: _151  and  _154
REMARK   60  A    between atoms: _156  and  _158
REMARK   61  A    between atoms: _158  and  _159
REMARK   62  A    between atoms: _158  and  _161
REMARK   63  A    between atoms: _161  and  _162
REMARK   64  A    between atoms: _164  and  _166
REMARK   65  A    between atoms: _166  and  _167
REMARK   66  A    between atoms: _166  and  _169
REMARK   67  A    between atoms: _169  and  _170
REMARK   68  A    between atoms: _172  and  _174
REMARK   69  A    between atoms: _174  and  _175
REMARK   70  A    between atoms: _178  and  _180
REMARK   71  A    between atoms: _180  and  _181
REMARK   72  A    between atoms: _183  and  _185
REMARK   73  A    between atoms: _185  and  _186
REMARK   74  A    between atoms: _185  and  _188
REMARK   75  A    between atoms: _188  and  _189
REMARK   76  A    between atoms: _192  and  _194
REMARK   77  A    between atoms: _194  and  _195
REMARK   78  A    between atoms: _194  and  _197
REMARK   79  A    between atoms: _197  and  _198
REMARK   80  A    between atoms: _204  and  _206
REMARK   81  A    between atoms: _206  and  _207
REMARK   82  A    between atoms: _206  and  _209
REMARK   83  A    between atoms: _209  and  _210
REMARK   84  A    between atoms: _210  and  _211
REMARK   85  A    between atoms: _216  and  _218
REMARK   86  A    between atoms: _218  and  _219
REMARK   87  A    between atoms: _218  and  _221
REMARK   88  A    between atoms: _221  and  _222
REMARK   89  A    between atoms: _222  and  _223
REMARK   90  A    between atoms: _225  and  _227
REMARK   91  A    between atoms: _227  and  _228
REMARK   92  A    between atoms: _227  and  _230
REMARK   93  A    between atoms: _230  and  _231
REMARK   94  A    between atoms: _231  and  _232
REMARK   95  A    between atoms: _237  and  _239
REMARK   96  A    between atoms: _239  and  _240
REMARK   97  A    between atoms: _239  and  _242
REMARK   98  A    between atoms: _242  and  _243
REMARK   99  A    between atoms: _249  and  _251
REMARK  100  A    between atoms: _251  and  _252
REMARK  101  A    between atoms: _251  and  _254
REMARK  102  A    between atoms: _254  and  _255
REMARK  103  A    between atoms: _255  and  _256
REMARK  104  A    between atoms: _259  and  _261
REMARK  105  A    between atoms: _261  and  _262
REMARK  106  A    between atoms: _261  and  _264
REMARK  107  A    between atoms: _264  and  _265
REMARK  108  A    between atoms: _267  and  _269
REMARK  109  A    between atoms: _269  and  _270
REMARK  110  A    between atoms: _269  and  _272
REMARK  111  A    between atoms: _272  and  _273
REMARK  112  A    between atoms: _276  and  _278
REMARK  113  A    between atoms: _278  and  _279
REMARK  114  A    between atoms: _278  and  _281
REMARK  115  A    between atoms: _281  and  _282
REMARK  116  A    between atoms: _285  and  _287
REMARK  117  A    between atoms: _287  and  _288
REMARK  118  A    between atoms: _287  and  _290
REMARK  119  A    between atoms: _290  and  _291
REMARK  120  A    between atoms: _293  and  _295
REMARK  121  A    between atoms: _295  and  _296
REMARK  122  A    between atoms: _298  and  _300
REMARK  123  A    between atoms: _300  and  _301
REMARK  124  A    between atoms: _300  and  _303
REMARK  125  A    between atoms: _303  and  _304
REMARK  126  A    between atoms: _309  and  _311
REMARK  127  A    between atoms: _311  and  _312
REMARK  128  A    between atoms: _311  and  _314
REMARK  129  A    between atoms: _314  and  _315
REMARK                            x       y       z     vdW  Elec       q    Type
REMARK                         _______ _______ _______ _____ _____    ______ ____
ROOT
ATOM      1  O   HOH     1     -43.586  12.934   8.304  0.00  0.00    +0.000 OA
ENDROOT
TORSDOF 0
REMARK  Name = ../refined-set-2016/2xp7/2xp7_pocket.pdb
REMARK  129 active torsions:
REMARK  status: ('A' for Active; 'I' for Inactive)
REMARK    1  A    between atoms: _1  and  _3
REMARK    2  A    between atoms: _3  and  _4
REMARK    3  A    between atoms: _3  and  _6
REMARK    4  A    between atoms: _6  and  _7
REMARK    5  A    between atoms: _12  and  _14
REMARK    6  A    between atoms: _14  and  _15
REMARK    7  A    between atoms: _14  and  _17
REMARK    8  A    between atoms: _17  and  _18
REMARK    9  A    between atoms: _21  and  _23
REMARK   10  A    between atoms: _23  and  _24
REMARK   11  A    between atoms: _23  and  _26
REMARK   12  A    between atoms: _26  and  _27
REMARK   13  A    between atoms: _27  and  _28
REMARK   14  A    between atoms: _28  and  _29
REMARK   15  A    between atoms: _29  and  _30
REMARK   16  A    between atoms: _34  and  _36
REMARK   17  A    between atoms: _36  and  _37
REMARK   18  A    between atoms: _36  and  _39
REMARK   19  A    between atoms: _39  and  _40
REMARK   20  A    between atoms: _42  and  _44
REMARK   21  A    between atoms: _44  and  _45
REMARK   22  A    between atoms: _44  and  _47
REMARK   23  A    between atoms: _48  and  _49
REMARK   24  A    between atoms: _49  and  _50
REMARK   25  A    between atoms: _59  and  _61
REMARK   26  A    between atoms: _61  and  _62
REMARK   27  A    between atoms: _61  and  _64
REMARK   28  A    between atoms: _65  and  _66
REMARK   29  A    between atoms: _66  and  _67
REMARK   30  A    between atoms: _77  and  _78
REMARK   31  A    between atoms: _83  and  _85
REMARK   32  A    between atoms: _85  and  _86
REMARK   33  A    between atoms: _85  and  _88
REMARK   34  A    between atoms: _88  and  _89
REMARK   35  A    between atoms: _91  and  _93
REMARK   36  A    between atoms: _93  and  _94
REMARK   37  A    between atoms: _93  and  _96
REMARK   38  A    between atoms: _96  and  _97
REMARK   39  A    between atoms: _99  and  _101
REMARK   40  A    between atoms: _101  and  _102
REMARK   41  A    between atoms: _101  and  _104
REMARK   42  A    between atoms: _104  and  _105
REMARK   43  A    between atoms: _115  and  _117
REMARK   44  A    between atoms: _117  and  _118
REMARK   45  A    between atoms: _117  and  _120
REMARK   46  A    between atoms: _120  and  _121
REMARK   47  A    between atoms: _121  and  _122
REMARK   48  A    between atoms: _122  and  _123
REMARK   49  A    between atoms: _132  and  _134
REMARK   50  A    between atoms: _134  and  _135
REMARK   51  A    between atoms: _134  and  _137
REMARK   52  A    between atoms: _137  and  _138
REMARK   53  A    between atoms: _140  and  _142
REMARK   54  A    between atoms: _142  and  _143
REMARK   55  A    between atoms: _142  and  _145
REMARK   56  A    between atoms: _145  and  _146
REMARK   57  A    between atoms: _149  and  _151
REMARK   58  A    between atoms: _151  and  _152
REMARK   59  A    between atoms: _151  and  _154
REMARK   60  A    between atoms: _156  and  _158
REMARK   61  A    between atoms: _158  and  _159
REMARK   62  A    between atoms: _158  and  _161
REMARK   63  A    between atoms: _161  and  _162
REMARK   64  A    between atoms: _164  and  _166
REMARK   65  A    between atoms: _166  and  _167
REMARK   66  A    between atoms: _166  and  _169
REMARK   67  A    between atoms: _169  and  _170
REMARK   68  A    between atoms: _172  and  _174
REMARK   69  A    between atoms: _174  and  _175
REMARK   70  A    between atoms: _178  and  _180
REMARK   71  A    between atoms: _180  and  _181
REMARK   72  A    between atoms: _183  and  _185
REMARK   73  A    between atoms: _185  and  _186
REMARK   74  A    between atoms: _185  and  _188
REMARK   75  A    between atoms: _188  and  _189
REMARK   76  A    between atoms: _192  and  _194
REMARK   77  A    between atoms: _194  and  _195
REMARK   78  A    between atoms: _194  and  _197
REMARK   79  A    between atoms: _197  and  _198
REMARK   80  A    between atoms: _204  and  _206
REMARK   81  A    between atoms: _206  and  _207
REMARK   82  A    between atoms: _206  and  _209
REMARK   83  A    between atoms: _209  and  _210
REMARK   84  A    between atoms: _210  and  _211
REMARK   85  A    between atoms: _216  and  _218
REMARK   86  A    between atoms: _218  and  _219
REMARK   87  A    between atoms: _218  and  _221
REMARK   88  A    between atoms: _221  and  _222
REMARK   89  A    between atoms: _222  and  _223
REMARK   90  A    between atoms: _225  and  _227
REMARK   91  A    between atoms: _227  and  _228
REMARK   92  A    between atoms: _227  and  _230
REMARK   93  A    between atoms: _230  and  _231
REMARK   94  A    between atoms: _231  and  _232
REMARK   95  A    between atoms: _237  and  _239
REMARK   96  A    between atoms: _239  and  _240
REMARK   97  A    between atoms: _239  and  _242
REMARK   98  A    between atoms: _242  and  _243
REMARK   99  A    between atoms: _249  and  _251
REMARK  100  A    between atoms: _251  and  _252
REMARK  101  A    between atoms: _251  and  _254
REMARK  102  A    between atoms: _254  and  _255
REMARK  103  A    between atoms: _255  and  _256
REMARK  104  A    between atoms: _259  and  _261
REMARK  105  A    between atoms: _261  and  _262
REMARK  106  A    between atoms: _261  and  _264
REMARK  107  A    between atoms: _264  and  _265
REMARK  108  A    between atoms: _267  and  _269
REMARK  109  A    between atoms: _269  and  _270
REMARK  110  A    between atoms: _269  and  _272
REMARK  111  A    between atoms: _272  and  _273
REMARK  112  A    between atoms: _276  and  _278
REMARK  113  A    between atoms: _278  and  _279
REMARK  114  A    between atoms: _278  and  _281
REMARK  115  A    between atoms: _281  and  _282
REMARK  116  A    between atoms: _285  and  _287
REMARK  117  A    between atoms: _287  and  _288
REMARK  118  A    between atoms: _287  and  _290
REMARK  119  A    between atoms: _290  and  _291
REMARK  120  A    between atoms: _293  and  _295
REMARK  121  A    between atoms: _295  and  _296
REMARK  122  A    between atoms: _298  and  _300
REMARK  123  A    between atoms: _300  and  _301
REMARK  124  A    between atoms: _300  and  _303
REMARK  125  A    between atoms: _303  and  _304
REMARK  126  A    between atoms: _309  and  _311
REMARK  127  A    between atoms: _311  and  _312
REMARK  128  A    between atoms: _311  and  _314
REMARK  129  A    between atoms: _314  and  _315
REMARK                            x       y       z     vdW  Elec       q    Type
REMARK                         _______ _______ _______ _____ _____    ______ ____
ROOT
ATOM      1  O   HOH     1     -44.496  23.242  18.863  0.00  0.00    +0.000 OA
ENDROOT
TORSDOF 0
REMARK  Name = ../refined-set-2016/2xp7/2xp7_pocket.pdb
REMARK  129 active torsions:
REMARK  status: ('A' for Active; 'I' for Inactive)
REMARK    1  A    between atoms: _1  and  _3
REMARK    2  A    between atoms: _3  and  _4
REMARK    3  A    between atoms: _3  and  _6
REMARK    4  A    between atoms: _6  and  _7
REMARK    5  A    between atoms: _12  and  _14
REMARK    6  A    between atoms: _14  and  _15
REMARK    7  A    between atoms: _14  and  _17
REMARK    8  A    between atoms: _17  and  _18
REMARK    9  A    between atoms: _21  and  _23
REMARK   10  A    between atoms: _23  and  _24
REMARK   11  A    between atoms: _23  and  _26
REMARK   12  A    between atoms: _26  and  _27
REMARK   13  A    between atoms: _27  and  _28
REMARK   14  A    between atoms: _28  and  _29
REMARK   15  A    between atoms: _29  and  _30
REMARK   16  A    between atoms: _34  and  _36
REMARK   17  A    between atoms: _36  and  _37
REMARK   18  A    between atoms: _36  and  _39
REMARK   19  A    between atoms: _39  and  _40
REMARK   20  A    between atoms: _42  and  _44
REMARK   21  A    between atoms: _44  and  _45
REMARK   22  A    between atoms: _44  and  _47
REMARK   23  A    between atoms: _48  and  _49
REMARK   24  A    between atoms: _49  and  _50
REMARK   25  A    between atoms: _59  and  _61
REMARK   26  A    between atoms: _61  and  _62
REMARK   27  A    between atoms: _61  and  _64
REMARK   28  A    between atoms: _65  and  _66
REMARK   29  A    between atoms: _66  and  _67
REMARK   30  A    between atoms: _77  and  _78
REMARK   31  A    between atoms: _83  and  _85
REMARK   32  A    between atoms: _85  and  _86
REMARK   33  A    between atoms: _85  and  _88
REMARK   34  A    between atoms: _88  and  _89
REMARK   35  A    between atoms: _91  and  _93
REMARK   36  A    between atoms: _93  and  _94
REMARK   37  A    between atoms: _93  and  _96
REMARK   38  A    between atoms: _96  and  _97
REMARK   39  A    between atoms: _99  and  _101
REMARK   40  A    between atoms: _101  and  _102
REMARK   41  A    between atoms: _101  and  _104
REMARK   42  A    between atoms: _104  and  _105
REMARK   43  A    between atoms: _115  and  _117
REMARK   44  A    between atoms: _117  and  _118
REMARK   45  A    between atoms: _117  and  _120
REMARK   46  A    between atoms: _120  and  _121
REMARK   47  A    between atoms: _121  and  _122
REMARK   48  A    between atoms: _122  and  _123
REMARK   49  A    between atoms: _132  and  _134
REMARK   50  A    between atoms: _134  and  _135
REMARK   51  A    between atoms: _134  and  _137
REMARK   52  A    between atoms: _137  and  _138
REMARK   53  A    between atoms: _140  and  _142
REMARK   54  A    between atoms: _142  and  _143
REMARK   55  A    between atoms: _142  and  _145
REMARK   56  A    between atoms: _145  and  _146
REMARK   57  A    between atoms: _149  and  _151
REMARK   58  A    between atoms: _151  and  _152
REMARK   59  A    between atoms: _151  and  _154
REMARK   60  A    between atoms: _156  and  _158
REMARK   61  A    between atoms: _158  and  _159
REMARK   62  A    between atoms: _158  and  _161
REMARK   63  A    between atoms: _161  and  _162
REMARK   64  A    between atoms: _164  and  _166
REMARK   65  A    between atoms: _166  and  _167
REMARK   66  A    between atoms: _166  and  _169
REMARK   67  A    between atoms: _169  and  _170
REMARK   68  A    between atoms: _172  and  _174
REMARK   69  A    between atoms: _174  and  _175
REMARK   70  A    between atoms: _178  and  _180
REMARK   71  A    between atoms: _180  and  _181
REMARK   72  A    between atoms: _183  and  _185
REMARK   73  A    between atoms: _185  and  _186
REMARK   74  A    between atoms: _185  and  _188
REMARK   75  A    between atoms: _188  and  _189
REMARK   76  A    between atoms: _192  and  _194
REMARK   77  A    between atoms: _194  and  _195
REMARK   78  A    between atoms: _194  and  _197
REMARK   79  A    between atoms: _197  and  _198
REMARK   80  A    between atoms: _204  and  _206
REMARK   81  A    between atoms: _206  and  _207
REMARK   82  A    between atoms: _206  and  _209
REMARK   83  A    between atoms: _209  and  _210
REMARK   84  A    between atoms: _210  and  _211
REMARK   85  A    between atoms: _216  and  _218
REMARK   86  A    between atoms: _218  and  _219
REMARK   87  A    between atoms: _218  and  _221
REMARK   88  A    between atoms: _221  and  _222
REMARK   89  A    between atoms: _222  and  _223
REMARK   90  A    between atoms: _225  and  _227
REMARK   91  A    between atoms: _227  and  _228
REMARK   92  A    between atoms: _227  and  _230
REMARK   93  A    between atoms: _230  and  _231
REMARK   94  A    between atoms: _231  and  _232
REMARK   95  A    between atoms: _237  and  _239
REMARK   96  A    between atoms: _239  and  _240
REMARK   97  A    between atoms: _239  and  _242
REMARK   98  A    between atoms: _242  and  _243
REMARK   99  A    between atoms: _249  and  _251
REMARK  100  A    between atoms: _251  and  _252
REMARK  101  A    between atoms: _251  and  _254
REMARK  102  A    between atoms: _254  and  _255
REMARK  103  A    between atoms: _255  and  _256
REMARK  104  A    between atoms: _259  and  _261
REMARK  105  A    between atoms: _261  and  _262
REMARK  106  A    between atoms: _261  and  _264
REMARK  107  A    between atoms: _264  and  _265
REMARK  108  A    between atoms: _267  and  _269
REMARK  109  A    between atoms: _269  and  _270
REMARK  110  A    between atoms: _269  and  _272
REMARK  111  A    between atoms: _272  and  _273
REMARK  112  A    between atoms: _276  and  _278
REMARK  113  A    between atoms: _278  and  _279
REMARK  114  A    between atoms: _278  and  _281
REMARK  115  A    between atoms: _281  and  _282
REMARK  116  A    between atoms: _285  and  _287
REMARK  117  A    between atoms: _287  and  _288
REMARK  118  A    between atoms: _287  and  _290
REMARK  119  A    between atoms: _290  and  _291
REMARK  120  A    between atoms: _293  and  _295
REMARK  121  A    between atoms: _295  and  _296
REMARK  122  A    between atoms: _298  and  _300
REMARK  123  A    between atoms: _300  and  _301
REMARK  124  A    between atoms: _300  and  _303
REMARK  125  A    between atoms: _303  and  _304
REMARK  126  A    between atoms: _309  and  _311
REMARK  127  A    between atoms: _311  and  _312
REMARK  128  A    between atoms: _311  and  _314
REMARK  129  A    between atoms: _314  and  _315
REMARK                            x       y       z     vdW  Elec       q    Type
REMARK                         _______ _______ _______ _____ _____    ______ ____
ROOT
ATOM      1  O   HOH     1     -35.785  22.667  19.422  0.00  0.00    +0.000 OA
ENDROOT
TORSDOF 0
REMARK  Name = ../refined-set-2016/2xp7/2xp7_pocket.pdb
REMARK  129 active torsions:
REMARK  status: ('A' for Active; 'I' for Inactive)
REMARK    1  A    between atoms: _1  and  _3
REMARK    2  A    between atoms: _3  and  _4
REMARK    3  A    between atoms: _3  and  _6
REMARK    4  A    between atoms: _6  and  _7
REMARK    5  A    between atoms: _12  and  _14
REMARK    6  A    between atoms: _14  and  _15
REMARK    7  A    between atoms: _14  and  _17
REMARK    8  A    between atoms: _17  and  _18
REMARK    9  A    between atoms: _21  and  _23
REMARK   10  A    between atoms: _23  and  _24
REMARK   11  A    between atoms: _23  and  _26
REMARK   12  A    between atoms: _26  and  _27
REMARK   13  A    between atoms: _27  and  _28
REMARK   14  A    between atoms: _28  and  _29
REMARK   15  A    between atoms: _29  and  _30
REMARK   16  A    between atoms: _34  and  _36
REMARK   17  A    between atoms: _36  and  _37
REMARK   18  A    between atoms: _36  and  _39
REMARK   19  A    between atoms: _39  and  _40
REMARK   20  A    between atoms: _42  and  _44
REMARK   21  A    between atoms: _44  and  _45
REMARK   22  A    between atoms: _44  and  _47
REMARK   23  A    between atoms: _48  and  _49
REMARK   24  A    between atoms: _49  and  _50
REMARK   25  A    between atoms: _59  and  _61
REMARK   26  A    between atoms: _61  and  _62
REMARK   27  A    between atoms: _61  and  _64
REMARK   28  A    between atoms: _65  and  _66
REMARK   29  A    between atoms: _66  and  _67
REMARK   30  A    between atoms: _77  and  _78
REMARK   31  A    between atoms: _83  and  _85
REMARK   32  A    between atoms: _85  and  _86
REMARK   33  A    between atoms: _85  and  _88
REMARK   34  A    between atoms: _88  and  _89
REMARK   35  A    between atoms: _91  and  _93
REMARK   36  A    between atoms: _93  and  _94
REMARK   37  A    between atoms: _93  and  _96
REMARK   38  A    between atoms: _96  and  _97
REMARK   39  A    between atoms: _99  and  _101
REMARK   40  A    between atoms: _101  and  _102
REMARK   41  A    between atoms: _101  and  _104
REMARK   42  A    between atoms: _104  and  _105
REMARK   43  A    between atoms: _115  and  _117
REMARK   44  A    between atoms: _117  and  _118
REMARK   45  A    between atoms: _117  and  _120
REMARK   46  A    between atoms: _120  and  _121
REMARK   47  A    between atoms: _121  and  _122
REMARK   48  A    between atoms: _122  and  _123
REMARK   49  A    between atoms: _132  and  _134
REMARK   50  A    between atoms: _134  and  _135
REMARK   51  A    between atoms: _134  and  _137
REMARK   52  A    between atoms: _137  and  _138
REMARK   53  A    between atoms: _140  and  _142
REMARK   54  A    between atoms: _142  and  _143
REMARK   55  A    between atoms: _142  and  _145
REMARK   56  A    between atoms: _145  and  _146
REMARK   57  A    between atoms: _149  and  _151
REMARK   58  A    between atoms: _151  and  _152
REMARK   59  A    between atoms: _151  and  _154
REMARK   60  A    between atoms: _156  and  _158
REMARK   61  A    between atoms: _158  and  _159
REMARK   62  A    between atoms: _158  and  _161
REMARK   63  A    between atoms: _161  and  _162
REMARK   64  A    between atoms: _164  and  _166
REMARK   65  A    between atoms: _166  and  _167
REMARK   66  A    between atoms: _166  and  _169
REMARK   67  A    between atoms: _169  and  _170
REMARK   68  A    between atoms: _172  and  _174
REMARK   69  A    between atoms: _174  and  _175
REMARK   70  A    between atoms: _178  and  _180
REMARK   71  A    between atoms: _180  and  _181
REMARK   72  A    between atoms: _183  and  _185
REMARK   73  A    between atoms: _185  and  _186
REMARK   74  A    between atoms: _185  and  _188
REMARK   75  A    between atoms: _188  and  _189
REMARK   76  A    between atoms: _192  and  _194
REMARK   77  A    between atoms: _194  and  _195
REMARK   78  A    between atoms: _194  and  _197
REMARK   79  A    between atoms: _197  and  _198
REMARK   80  A    between atoms: _204  and  _206
REMARK   81  A    between atoms: _206  and  _207
REMARK   82  A    between atoms: _206  and  _209
REMARK   83  A    between atoms: _209  and  _210
REMARK   84  A    between atoms: _210  and  _211
REMARK   85  A    between atoms: _216  and  _218
REMARK   86  A    between atoms: _218  and  _219
REMARK   87  A    between atoms: _218  and  _221
REMARK   88  A    between atoms: _221  and  _222
REMARK   89  A    between atoms: _222  and  _223
REMARK   90  A    between atoms: _225  and  _227
REMARK   91  A    between atoms: _227  and  _228
REMARK   92  A    between atoms: _227  and  _230
REMARK   93  A    between atoms: _230  and  _231
REMARK   94  A    between atoms: _231  and  _232
REMARK   95  A    between atoms: _237  and  _239
REMARK   96  A    between atoms: _239  and  _240
REMARK   97  A    between atoms: _239  and  _242
REMARK   98  A    between atoms: _242  and  _243
REMARK   99  A    between atoms: _249  and  _251
REMARK  100  A    between atoms: _251  and  _252
REMARK  101  A    between atoms: _251  and  _254
REMARK  102  A    between atoms: _254  and  _255
REMARK  103  A    between atoms: _255  and  _256
REMARK  104  A    between atoms: _259  and  _261
REMARK  105  A    between atoms: _261  and  _262
REMARK  106  A    between atoms: _261  and  _264
REMARK  107  A    between atoms: _264  and  _265
REMARK  108  A    between atoms: _267  and  _269
REMARK  109  A    between atoms: _269  and  _270
REMARK  110  A    between atoms: _269  and  _272
REMARK  111  A    between atoms: _272  and  _273
REMARK  112  A    between atoms: _276  and  _278
REMARK  113  A    between atoms: _278  and  _279
REMARK  114  A    between atoms: _278  and  _281
REMARK  115  A    between atoms: _281  and  _282
REMARK  116  A    between atoms: _285  and  _287
REMARK  117  A    between atoms: _287  and  _288
REMARK  118  A    between atoms: _287  and  _290
REMARK  119  A    between atoms: _290  and  _291
REMARK  120  A    between atoms: _293  and  _295
REMARK  121  A    between atoms: _295  and  _296
REMARK  122  A    between atoms: _298  and  _300
REMARK  123  A    between atoms: _300  and  _301
REMARK  124  A    between atoms: _300  and  _303
REMARK  125  A    between atoms: _303  and  _304
REMARK  126  A    between atoms: _309  and  _311
REMARK  127  A    between atoms: _311  and  _312
REMARK  128  A    between atoms: _311  and  _314
REMARK  129  A    between atoms: _314  and  _315
REMARK                            x       y       z     vdW  Elec       q    Type
REMARK                         _______ _______ _______ _____ _____    ______ ____
ROOT
ATOM      1  O   HOH     1     -44.351  17.491  21.648  0.00  0.00    +0.000 OA
ENDROOT
TORSDOF 0
REMARK  Name = ../refined-set-2016/2xp7/2xp7_pocket.pdb
REMARK  129 active torsions:
REMARK  status: ('A' for Active; 'I' for Inactive)
REMARK    1  A    between atoms: _1  and  _3
REMARK    2  A    between atoms: _3  and  _4
REMARK    3  A    between atoms: _3  and  _6
REMARK    4  A    between atoms: _6  and  _7
REMARK    5  A    between atoms: _12  and  _14
REMARK    6  A    between atoms: _14  and  _15
REMARK    7  A    between atoms: _14  and  _17
REMARK    8  A    between atoms: _17  and  _18
REMARK    9  A    between atoms: _21  and  _23
REMARK   10  A    between atoms: _23  and  _24
REMARK   11  A    between atoms: _23  and  _26
REMARK   12  A    between atoms: _26  and  _27
REMARK   13  A    between atoms: _27  and  _28
REMARK   14  A    between atoms: _28  and  _29
REMARK   15  A    between atoms: _29  and  _30
REMARK   16  A    between atoms: _34  and  _36
REMARK   17  A    between atoms: _36  and  _37
REMARK   18  A    between atoms: _36  and  _39
REMARK   19  A    between atoms: _39  and  _40
REMARK   20  A    between atoms: _42  and  _44
REMARK   21  A    between atoms: _44  and  _45
REMARK   22  A    between atoms: _44  and  _47
REMARK   23  A    between atoms: _48  and  _49
REMARK   24  A    between atoms: _49  and  _50
REMARK   25  A    between atoms: _59  and  _61
REMARK   26  A    between atoms: _61  and  _62
REMARK   27  A    between atoms: _61  and  _64
REMARK   28  A    between atoms: _65  and  _66
REMARK   29  A    between atoms: _66  and  _67
REMARK   30  A    between atoms: _77  and  _78
REMARK   31  A    between atoms: _83  and  _85
REMARK   32  A    between atoms: _85  and  _86
REMARK   33  A    between atoms: _85  and  _88
REMARK   34  A    between atoms: _88  and  _89
REMARK   35  A    between atoms: _91  and  _93
REMARK   36  A    between atoms: _93  and  _94
REMARK   37  A    between atoms: _93  and  _96
REMARK   38  A    between atoms: _96  and  _97
REMARK   39  A    between atoms: _99  and  _101
REMARK   40  A    between atoms: _101  and  _102
REMARK   41  A    between atoms: _101  and  _104
REMARK   42  A    between atoms: _104  and  _105
REMARK   43  A    between atoms: _115  and  _117
REMARK   44  A    between atoms: _117  and  _118
REMARK   45  A    between atoms: _117  and  _120
REMARK   46  A    between atoms: _120  and  _121
REMARK   47  A    between atoms: _121  and  _122
REMARK   48  A    between atoms: _122  and  _123
REMARK   49  A    between atoms: _132  and  _134
REMARK   50  A    between atoms: _134  and  _135
REMARK   51  A    between atoms: _134  and  _137
REMARK   52  A    between atoms: _137  and  _138
REMARK   53  A    between atoms: _140  and  _142
REMARK   54  A    between atoms: _142  and  _143
REMARK   55  A    between atoms: _142  and  _145
REMARK   56  A    between atoms: _145  and  _146
REMARK   57  A    between atoms: _149  and  _151
REMARK   58  A    between atoms: _151  and  _152
REMARK   59  A    between atoms: _151  and  _154
REMARK   60  A    between atoms: _156  and  _158
REMARK   61  A    between atoms: _158  and  _159
REMARK   62  A    between atoms: _158  and  _161
REMARK   63  A    between atoms: _161  and  _162
REMARK   64  A    between atoms: _164  and  _166
REMARK   65  A    between atoms: _166  and  _167
REMARK   66  A    between atoms: _166  and  _169
REMARK   67  A    between atoms: _169  and  _170
REMARK   68  A    between atoms: _172  and  _174
REMARK   69  A    between atoms: _174  and  _175
REMARK   70  A    between atoms: _178  and  _180
REMARK   71  A    between atoms: _180  and  _181
REMARK   72  A    between atoms: _183  and  _185
REMARK   73  A    between atoms: _185  and  _186
REMARK   74  A    between atoms: _185  and  _188
REMARK   75  A    between atoms: _188  and  _189
REMARK   76  A    between atoms: _192  and  _194
REMARK   77  A    between atoms: _194  and  _195
REMARK   78  A    between atoms: _194  and  _197
REMARK   79  A    between atoms: _197  and  _198
REMARK   80  A    between atoms: _204  and  _206
REMARK   81  A    between atoms: _206  and  _207
REMARK   82  A    between atoms: _206  and  _209
REMARK   83  A    between atoms: _209  and  _210
REMARK   84  A    between atoms: _210  and  _211
REMARK   85  A    between atoms: _216  and  _218
REMARK   86  A    between atoms: _218  and  _219
REMARK   87  A    between atoms: _218  and  _221
REMARK   88  A    between atoms: _221  and  _222
REMARK   89  A    between atoms: _222  and  _223
REMARK   90  A    between atoms: _225  and  _227
REMARK   91  A    between atoms: _227  and  _228
REMARK   92  A    between atoms: _227  and  _230
REMARK   93  A    between atoms: _230  and  _231
REMARK   94  A    between atoms: _231  and  _232
REMARK   95  A    between atoms: _237  and  _239
REMARK   96  A    between atoms: _239  and  _240
REMARK   97  A    between atoms: _239  and  _242
REMARK   98  A    between atoms: _242  and  _243
REMARK   99  A    between atoms: _249  and  _251
REMARK  100  A    between atoms: _251  and  _252
REMARK  101  A    between atoms: _251  and  _254
REMARK  102  A    between atoms: _254  and  _255
REMARK  103  A    between atoms: _255  and  _256
REMARK  104  A    between atoms: _259  and  _261
REMARK  105  A    between atoms: _261  and  _262
REMARK  106  A    between atoms: _261  and  _264
REMARK  107  A    between atoms: _264  and  _265
REMARK  108  A    between atoms: _267  and  _269
REMARK  109  A    between atoms: _269  and  _270
REMARK  110  A    between atoms: _269  and  _272
REMARK  111  A    between atoms: _272  and  _273
REMARK  112  A    between atoms: _276  and  _278
REMARK  113  A    between atoms: _278  and  _279
REMARK  114  A    between atoms: _278  and  _281
REMARK  115  A    between atoms: _281  and  _282
REMARK  116  A    between atoms: _285  and  _287
REMARK  117  A    between atoms: _287  and  _288
REMARK  118  A    between atoms: _287  and  _290
REMARK  119  A    between atoms: _290  and  _291
REMARK  120  A    between atoms: _293  and  _295
REMARK  121  A    between atoms: _295  and  _296
REMARK  122  A    between atoms: _298  and  _300
REMARK  123  A    between atoms: _300  and  _301
REMARK  124  A    between atoms: _300  and  _303
REMARK  125  A    between atoms: _303  and  _304
REMARK  126  A    between atoms: _309  and  _311
REMARK  127  A    between atoms: _311  and  _312
REMARK  128  A    between atoms: _311  and  _314
REMARK  129  A    between atoms: _314  and  _315
REMARK                            x       y       z     vdW  Elec       q    Type
REMARK                         _______ _______ _______ _____ _____    ______ ____
ROOT
ATOM      1  O   HOH     1     -43.611  17.691  24.517  0.00  0.00    +0.000 OA
ENDROOT
TORSDOF 0
REMARK  Name = ../refined-set-2016/2xp7/2xp7_pocket.pdb
REMARK  129 active torsions:
REMARK  status: ('A' for Active; 'I' for Inactive)
REMARK    1  A    between atoms: _1  and  _3
REMARK    2  A    between atoms: _3  and  _4
REMARK    3  A    between atoms: _3  and  _6
REMARK    4  A    between atoms: _6  and  _7
REMARK    5  A    between atoms: _12  and  _14
REMARK    6  A    between atoms: _14  and  _15
REMARK    7  A    between atoms: _14  and  _17
REMARK    8  A    between atoms: _17  and  _18
REMARK    9  A    between atoms: _21  and  _23
REMARK   10  A    between atoms: _23  and  _24
REMARK   11  A    between atoms: _23  and  _26
REMARK   12  A    between atoms: _26  and  _27
REMARK   13  A    between atoms: _27  and  _28
REMARK   14  A    between atoms: _28  and  _29
REMARK   15  A    between atoms: _29  and  _30
REMARK   16  A    between atoms: _34  and  _36
REMARK   17  A    between atoms: _36  and  _37
REMARK   18  A    between atoms: _36  and  _39
REMARK   19  A    between atoms: _39  and  _40
REMARK   20  A    between atoms: _42  and  _44
REMARK   21  A    between atoms: _44  and  _45
REMARK   22  A    between atoms: _44  and  _47
REMARK   23  A    between atoms: _48  and  _49
REMARK   24  A    between atoms: _49  and  _50
REMARK   25  A    between atoms: _59  and  _61
REMARK   26  A    between atoms: _61  and  _62
REMARK   27  A    between atoms: _61  and  _64
REMARK   28  A    between atoms: _65  and  _66
REMARK   29  A    between atoms: _66  and  _67
REMARK   30  A    between atoms: _77  and  _78
REMARK   31  A    between atoms: _83  and  _85
REMARK   32  A    between atoms: _85  and  _86
REMARK   33  A    between atoms: _85  and  _88
REMARK   34  A    between atoms: _88  and  _89
REMARK   35  A    between atoms: _91  and  _93
REMARK   36  A    between atoms: _93  and  _94
REMARK   37  A    between atoms: _93  and  _96
REMARK   38  A    between atoms: _96  and  _97
REMARK   39  A    between atoms: _99  and  _101
REMARK   40  A    between atoms: _101  and  _102
REMARK   41  A    between atoms: _101  and  _104
REMARK   42  A    between atoms: _104  and  _105
REMARK   43  A    between atoms: _115  and  _117
REMARK   44  A    between atoms: _117  and  _118
REMARK   45  A    between atoms: _117  and  _120
REMARK   46  A    between atoms: _120  and  _121
REMARK   47  A    between atoms: _121  and  _122
REMARK   48  A    between atoms: _122  and  _123
REMARK   49  A    between atoms: _132  and  _134
REMARK   50  A    between atoms: _134  and  _135
REMARK   51  A    between atoms: _134  and  _137
REMARK   52  A    between atoms: _137  and  _138
REMARK   53  A    between atoms: _140  and  _142
REMARK   54  A    between atoms: _142  and  _143
REMARK   55  A    between atoms: _142  and  _145
REMARK   56  A    between atoms: _145  and  _146
REMARK   57  A    between atoms: _149  and  _151
REMARK   58  A    between atoms: _151  and  _152
REMARK   59  A    between atoms: _151  and  _154
REMARK   60  A    between atoms: _156  and  _158
REMARK   61  A    between atoms: _158  and  _159
REMARK   62  A    between atoms: _158  and  _161
REMARK   63  A    between atoms: _161  and  _162
REMARK   64  A    between atoms: _164  and  _166
REMARK   65  A    between atoms: _166  and  _167
REMARK   66  A    between atoms: _166  and  _169
REMARK   67  A    between atoms: _169  and  _170
REMARK   68  A    between atoms: _172  and  _174
REMARK   69  A    between atoms: _174  and  _175
REMARK   70  A    between atoms: _178  and  _180
REMARK   71  A    between atoms: _180  and  _181
REMARK   72  A    between atoms: _183  and  _185
REMARK   73  A    between atoms: _185  and  _186
REMARK   74  A    between atoms: _185  and  _188
REMARK   75  A    between atoms: _188  and  _189
REMARK   76  A    between atoms: _192  and  _194
REMARK   77  A    between atoms: _194  and  _195
REMARK   78  A    between atoms: _194  and  _197
REMARK   79  A    between atoms: _197  and  _198
REMARK   80  A    between atoms: _204  and  _206
REMARK   81  A    between atoms: _206  and  _207
REMARK   82  A    between atoms: _206  and  _209
REMARK   83  A    between atoms: _209  and  _210
REMARK   84  A    between atoms: _210  and  _211
REMARK   85  A    between atoms: _216  and  _218
REMARK   86  A    between atoms: _218  and  _219
REMARK   87  A    between atoms: _218  and  _221
REMARK   88  A    between atoms: _221  and  _222
REMARK   89  A    between atoms: _222  and  _223
REMARK   90  A    between atoms: _225  and  _227
REMARK   91  A    between atoms: _227  and  _228
REMARK   92  A    between atoms: _227  and  _230
REMARK   93  A    between atoms: _230  and  _231
REMARK   94  A    between atoms: _231  and  _232
REMARK   95  A    between atoms: _237  and  _239
REMARK   96  A    between atoms: _239  and  _240
REMARK   97  A    between atoms: _239  and  _242
REMARK   98  A    between atoms: _242  and  _243
REMARK   99  A    between atoms: _249  and  _251
REMARK  100  A    between atoms: _251  and  _252
REMARK  101  A    between atoms: _251  and  _254
REMARK  102  A    between atoms: _254  and  _255
REMARK  103  A    between atoms: _255  and  _256
REMARK  104  A    between atoms: _259  and  _261
REMARK  105  A    between atoms: _261  and  _262
REMARK  106  A    between atoms: _261  and  _264
REMARK  107  A    between atoms: _264  and  _265
REMARK  108  A    between atoms: _267  and  _269
REMARK  109  A    between atoms: _269  and  _270
REMARK  110  A    between atoms: _269  and  _272
REMARK  111  A    between atoms: _272  and  _273
REMARK  112  A    between atoms: _276  and  _278
REMARK  113  A    between atoms: _278  and  _279
REMARK  114  A    between atoms: _278  and  _281
REMARK  115  A    between atoms: _281  and  _282
REMARK  116  A    between atoms: _285  and  _287
REMARK  117  A    between atoms: _287  and  _288
REMARK  118  A    between atoms: _287  and  _290
REMARK  119  A    between atoms: _290  and  _291
REMARK  120  A    between atoms: _293  and  _295
REMARK  121  A    between atoms: _295  and  _296
REMARK  122  A    between atoms: _298  and  _300
REMARK  123  A    between atoms: _300  and  _301
REMARK  124  A    between atoms: _300  and  _303
REMARK  125  A    between atoms: _303  and  _304
REMARK  126  A    between atoms: _309  and  _311
REMARK  127  A    between atoms: _311  and  _312
REMARK  128  A    between atoms: _311  and  _314
REMARK  129  A    between atoms: _314  and  _315
REMARK                            x       y       z     vdW  Elec       q    Type
REMARK                         _______ _______ _______ _____ _____    ______ ____
ROOT
ATOM      1  O   HOH     1     -43.882  23.094  23.776  0.00  0.00    +0.000 OA
ENDROOT
TORSDOF 0
REMARK  Name = ../refined-set-2016/2xp7/2xp7_pocket.pdb
REMARK  129 active torsions:
REMARK  status: ('A' for Active; 'I' for Inactive)
REMARK    1  A    between atoms: _1  and  _3
REMARK    2  A    between atoms: _3  and  _4
REMARK    3  A    between atoms: _3  and  _6
REMARK    4  A    between atoms: _6  and  _7
REMARK    5  A    between atoms: _12  and  _14
REMARK    6  A    between atoms: _14  and  _15
REMARK    7  A    between atoms: _14  and  _17
REMARK    8  A    between atoms: _17  and  _18
REMARK    9  A    between atoms: _21  and  _23
REMARK   10  A    between atoms: _23  and  _24
REMARK   11  A    between atoms: _23  and  _26
REMARK   12  A    between atoms: _26  and  _27
REMARK   13  A    between atoms: _27  and  _28
REMARK   14  A    between atoms: _28  and  _29
REMARK   15  A    between atoms: _29  and  _30
REMARK   16  A    between atoms: _34  and  _36
REMARK   17  A    between atoms: _36  and  _37
REMARK   18  A    between atoms: _36  and  _39
REMARK   19  A    between atoms: _39  and  _40
REMARK   20  A    between atoms: _42  and  _44
REMARK   21  A    between atoms: _44  and  _45
REMARK   22  A    between atoms: _44  and  _47
REMARK   23  A    between atoms: _48  and  _49
REMARK   24  A    between atoms: _49  and  _50
REMARK   25  A    between atoms: _59  and  _61
REMARK   26  A    between atoms: _61  and  _62
REMARK   27  A    between atoms: _61  and  _64
REMARK   28  A    between atoms: _65  and  _66
REMARK   29  A    between atoms: _66  and  _67
REMARK   30  A    between atoms: _77  and  _78
REMARK   31  A    between atoms: _83  and  _85
REMARK   32  A    between atoms: _85  and  _86
REMARK   33  A    between atoms: _85  and  _88
REMARK   34  A    between atoms: _88  and  _89
REMARK   35  A    between atoms: _91  and  _93
REMARK   36  A    between atoms: _93  and  _94
REMARK   37  A    between atoms: _93  and  _96
REMARK   38  A    between atoms: _96  and  _97
REMARK   39  A    between atoms: _99  and  _101
REMARK   40  A    between atoms: _101  and  _102
REMARK   41  A    between atoms: _101  and  _104
REMARK   42  A    between atoms: _104  and  _105
REMARK   43  A    between atoms: _115  and  _117
REMARK   44  A    between atoms: _117  and  _118
REMARK   45  A    between atoms: _117  and  _120
REMARK   46  A    between atoms: _120  and  _121
REMARK   47  A    between atoms: _121  and  _122
REMARK   48  A    between atoms: _122  and  _123
REMARK   49  A    between atoms: _132  and  _134
REMARK   50  A    between atoms: _134  and  _135
REMARK   51  A    between atoms: _134  and  _137
REMARK   52  A    between atoms: _137  and  _138
REMARK   53  A    between atoms: _140  and  _142
REMARK   54  A    between atoms: _142  and  _143
REMARK   55  A    between atoms: _142  and  _145
REMARK   56  A    between atoms: _145  and  _146
REMARK   57  A    between atoms: _149  and  _151
REMARK   58  A    between atoms: _151  and  _152
REMARK   59  A    between atoms: _151  and  _154
REMARK   60  A    between atoms: _156  and  _158
REMARK   61  A    between atoms: _158  and  _159
REMARK   62  A    between atoms: _158  and  _161
REMARK   63  A    between atoms: _161  and  _162
REMARK   64  A    between atoms: _164  and  _166
REMARK   65  A    between atoms: _166  and  _167
REMARK   66  A    between atoms: _166  and  _169
REMARK   67  A    between atoms: _169  and  _170
REMARK   68  A    between atoms: _172  and  _174
REMARK   69  A    between atoms: _174  and  _175
REMARK   70  A    between atoms: _178  and  _180
REMARK   71  A    between atoms: _180  and  _181
REMARK   72  A    between atoms: _183  and  _185
REMARK   73  A    between atoms: _185  and  _186
REMARK   74  A    between atoms: _185  and  _188
REMARK   75  A    between atoms: _188  and  _189
REMARK   76  A    between atoms: _192  and  _194
REMARK   77  A    between atoms: _194  and  _195
REMARK   78  A    between atoms: _194  and  _197
REMARK   79  A    between atoms: _197  and  _198
REMARK   80  A    between atoms: _204  and  _206
REMARK   81  A    between atoms: _206  and  _207
REMARK   82  A    between atoms: _206  and  _209
REMARK   83  A    between atoms: _209  and  _210
REMARK   84  A    between atoms: _210  and  _211
REMARK   85  A    between atoms: _216  and  _218
REMARK   86  A    between atoms: _218  and  _219
REMARK   87  A    between atoms: _218  and  _221
REMARK   88  A    between atoms: _221  and  _222
REMARK   89  A    between atoms: _222  and  _223
REMARK   90  A    between atoms: _225  and  _227
REMARK   91  A    between atoms: _227  and  _228
REMARK   92  A    between atoms: _227  and  _230
REMARK   93  A    between atoms: _230  and  _231
REMARK   94  A    between atoms: _231  and  _232
REMARK   95  A    between atoms: _237  and  _239
REMARK   96  A    between atoms: _239  and  _240
REMARK   97  A    between atoms: _239  and  _242
REMARK   98  A    between atoms: _242  and  _243
REMARK   99  A    between atoms: _249  and  _251
REMARK  100  A    between atoms: _251  and  _252
REMARK  101  A    between atoms: _251  and  _254
REMARK  102  A    between atoms: _254  and  _255
REMARK  103  A    between atoms: _255  and  _256
REMARK  104  A    between atoms: _259  and  _261
REMARK  105  A    between atoms: _261  and  _262
REMARK  106  A    between atoms: _261  and  _264
REMARK  107  A    between atoms: _264  and  _265
REMARK  108  A    between atoms: _267  and  _269
REMARK  109  A    between atoms: _269  and  _270
REMARK  110  A    between atoms: _269  and  _272
REMARK  111  A    between atoms: _272  and  _273
REMARK  112  A    between atoms: _276  and  _278
REMARK  113  A    between atoms: _278  and  _279
REMARK  114  A    between atoms: _278  and  _281
REMARK  115  A    between atoms: _281  and  _282
REMARK  116  A    between atoms: _285  and  _287
REMARK  117  A    between atoms: _287  and  _288
REMARK  118  A    between atoms: _287  and  _290
REMARK  119  A    between atoms: _290  and  _291
REMARK  120  A    between atoms: _293  and  _295
REMARK  121  A    between atoms: _295  and  _296
REMARK  122  A    between atoms: _298  and  _300
REMARK  123  A    between atoms: _300  and  _301
REMARK  124  A    between atoms: _300  and  _303
REMARK  125  A    between atoms: _303  and  _304
REMARK  126  A    between atoms: _309  and  _311
REMARK  127  A    between atoms: _311  and  _312
REMARK  128  A    between atoms: _311  and  _314
REMARK  129  A    between atoms: _314  and  _315
REMARK                            x       y       z     vdW  Elec       q    Type
REMARK                         _______ _______ _______ _____ _____    ______ ____
ROOT
ATOM      1  O   HOH     1     -37.029  16.533  23.812  0.00  0.00    +0.000 OA
ENDROOT
TORSDOF 0
REMARK  Name = ../refined-set-2016/2xp7/2xp7_pocket.pdb
REMARK  129 active torsions:
REMARK  status: ('A' for Active; 'I' for Inactive)
REMARK    1  A    between atoms: _1  and  _3
REMARK    2  A    between atoms: _3  and  _4
REMARK    3  A    between atoms: _3  and  _6
REMARK    4  A    between atoms: _6  and  _7
REMARK    5  A    between atoms: _12  and  _14
REMARK    6  A    between atoms: _14  and  _15
REMARK    7  A    between atoms: _14  and  _17
REMARK    8  A    between atoms: _17  and  _18
REMARK    9  A    between atoms: _21  and  _23
REMARK   10  A    between atoms: _23  and  _24
REMARK   11  A    between atoms: _23  and  _26
REMARK   12  A    between atoms: _26  and  _27
REMARK   13  A    between atoms: _27  and  _28
REMARK   14  A    between atoms: _28  and  _29
REMARK   15  A    between atoms: _29  and  _30
REMARK   16  A    between atoms: _34  and  _36
REMARK   17  A    between atoms: _36  and  _37
REMARK   18  A    between atoms: _36  and  _39
REMARK   19  A    between atoms: _39  and  _40
REMARK   20  A    between atoms: _42  and  _44
REMARK   21  A    between atoms: _44  and  _45
REMARK   22  A    between atoms: _44  and  _47
REMARK   23  A    between atoms: _48  and  _49
REMARK   24  A    between atoms: _49  and  _50
REMARK   25  A    between atoms: _59  and  _61
REMARK   26  A    between atoms: _61  and  _62
REMARK   27  A    between atoms: _61  and  _64
REMARK   28  A    between atoms: _65  and  _66
REMARK   29  A    between atoms: _66  and  _67
REMARK   30  A    between atoms: _77  and  _78
REMARK   31  A    between atoms: _83  and  _85
REMARK   32  A    between atoms: _85  and  _86
REMARK   33  A    between atoms: _85  and  _88
REMARK   34  A    between atoms: _88  and  _89
REMARK   35  A    between atoms: _91  and  _93
REMARK   36  A    between atoms: _93  and  _94
REMARK   37  A    between atoms: _93  and  _96
REMARK   38  A    between atoms: _96  and  _97
REMARK   39  A    between atoms: _99  and  _101
REMARK   40  A    between atoms: _101  and  _102
REMARK   41  A    between atoms: _101  and  _104
REMARK   42  A    between atoms: _104  and  _105
REMARK   43  A    between atoms: _115  and  _117
REMARK   44  A    between atoms: _117  and  _118
REMARK   45  A    between atoms: _117  and  _120
REMARK   46  A    between atoms: _120  and  _121
REMARK   47  A    between atoms: _121  and  _122
REMARK   48  A    between atoms: _122  and  _123
REMARK   49  A    between atoms: _132  and  _134
REMARK   50  A    between atoms: _134  and  _135
REMARK   51  A    between atoms: _134  and  _137
REMARK   52  A    between atoms: _137  and  _138
REMARK   53  A    between atoms: _140  and  _142
REMARK   54  A    between atoms: _142  and  _143
REMARK   55  A    between atoms: _142  and  _145
REMARK   56  A    between atoms: _145  and  _146
REMARK   57  A    between atoms: _149  and  _151
REMARK   58  A    between atoms: _151  and  _152
REMARK   59  A    between atoms: _151  and  _154
REMARK   60  A    between atoms: _156  and  _158
REMARK   61  A    between atoms: _158  and  _159
REMARK   62  A    between atoms: _158  and  _161
REMARK   63  A    between atoms: _161  and  _162
REMARK   64  A    between atoms: _164  and  _166
REMARK   65  A    between atoms: _166  and  _167
REMARK   66  A    between atoms: _166  and  _169
REMARK   67  A    between atoms: _169  and  _170
REMARK   68  A    between atoms: _172  and  _174
REMARK   69  A    between atoms: _174  and  _175
REMARK   70  A    between atoms: _178  and  _180
REMARK   71  A    between atoms: _180  and  _181
REMARK   72  A    between atoms: _183  and  _185
REMARK   73  A    between atoms: _185  and  _186
REMARK   74  A    between atoms: _185  and  _188
REMARK   75  A    between atoms: _188  and  _189
REMARK   76  A    between atoms: _192  and  _194
REMARK   77  A    between atoms: _194  and  _195
REMARK   78  A    between atoms: _194  and  _197
REMARK   79  A    between atoms: _197  and  _198
REMARK   80  A    between atoms: _204  and  _206
REMARK   81  A    between atoms: _206  and  _207
REMARK   82  A    between atoms: _206  and  _209
REMARK   83  A    between atoms: _209  and  _210
REMARK   84  A    between atoms: _210  and  _211
REMARK   85  A    between atoms: _216  and  _218
REMARK   86  A    between atoms: _218  and  _219
REMARK   87  A    between atoms: _218  and  _221
REMARK   88  A    between atoms: _221  and  _222
REMARK   89  A    between atoms: _222  and  _223
REMARK   90  A    between atoms: _225  and  _227
REMARK   91  A    between atoms: _227  and  _228
REMARK   92  A    between atoms: _227  and  _230
REMARK   93  A    between atoms: _230  and  _231
REMARK   94  A    between atoms: _231  and  _232
REMARK   95  A    between atoms: _237  and  _239
REMARK   96  A    between atoms: _239  and  _240
REMARK   97  A    between atoms: _239  and  _242
REMARK   98  A    between atoms: _242  and  _243
REMARK   99  A    between atoms: _249  and  _251
REMARK  100  A    between atoms: _251  and  _252
REMARK  101  A    between atoms: _251  and  _254
REMARK  102  A    between atoms: _254  and  _255
REMARK  103  A    between atoms: _255  and  _256
REMARK  104  A    between atoms: _259  and  _261
REMARK  105  A    between atoms: _261  and  _262
REMARK  106  A    between atoms: _261  and  _264
REMARK  107  A    between atoms: _264  and  _265
REMARK  108  A    between atoms: _267  and  _269
REMARK  109  A    between atoms: _269  and  _270
REMARK  110  A    between atoms: _269  and  _272
REMARK  111  A    between atoms: _272  and  _273
REMARK  112  A    between atoms: _276  and  _278
REMARK  113  A    between atoms: _278  and  _279
REMARK  114  A    between atoms: _278  and  _281
REMARK  115  A    between atoms: _281  and  _282
REMARK  116  A    between atoms: _285  and  _287
REMARK  117  A    between atoms: _287  and  _288
REMARK  118  A    between atoms: _287  and  _290
REMARK  119  A    between atoms: _290  and  _291
REMARK  120  A    between atoms: _293  and  _295
REMARK  121  A    between atoms: _295  and  _296
REMARK  122  A    between atoms: _298  and  _300
REMARK  123  A    between atoms: _300  and  _301
REMARK  124  A    between atoms: _300  and  _303
REMARK  125  A    between atoms: _303  and  _304
REMARK  126  A    between atoms: _309  and  _311
REMARK  127  A    between atoms: _311  and  _312
REMARK  128  A    between atoms: _311  and  _314
REMARK  129  A    between atoms: _314  and  _315
REMARK                            x       y       z     vdW  Elec       q    Type
REMARK                         _______ _______ _______ _____ _____    ______ ____
ROOT
ATOM      1  O   HOH     1     -37.148   8.713  18.541  0.00  0.00    +0.000 OA
ENDROOT
TORSDOF 0
REMARK  Name = ../refined-set-2016/2xp7/2xp7_pocket.pdb
REMARK  129 active torsions:
REMARK  status: ('A' for Active; 'I' for Inactive)
REMARK    1  A    between atoms: _1  and  _3
REMARK    2  A    between atoms: _3  and  _4
REMARK    3  A    between atoms: _3  and  _6
REMARK    4  A    between atoms: _6  and  _7
REMARK    5  A    between atoms: _12  and  _14
REMARK    6  A    between atoms: _14  and  _15
REMARK    7  A    between atoms: _14  and  _17
REMARK    8  A    between atoms: _17  and  _18
REMARK    9  A    between atoms: _21  and  _23
REMARK   10  A    between atoms: _23  and  _24
REMARK   11  A    between atoms: _23  and  _26
REMARK   12  A    between atoms: _26  and  _27
REMARK   13  A    between atoms: _27  and  _28
REMARK   14  A    between atoms: _28  and  _29
REMARK   15  A    between atoms: _29  and  _30
REMARK   16  A    between atoms: _34  and  _36
REMARK   17  A    between atoms: _36  and  _37
REMARK   18  A    between atoms: _36  and  _39
REMARK   19  A    between atoms: _39  and  _40
REMARK   20  A    between atoms: _42  and  _44
REMARK   21  A    between atoms: _44  and  _45
REMARK   22  A    between atoms: _44  and  _47
REMARK   23  A    between atoms: _48  and  _49
REMARK   24  A    between atoms: _49  and  _50
REMARK   25  A    between atoms: _59  and  _61
REMARK   26  A    between atoms: _61  and  _62
REMARK   27  A    between atoms: _61  and  _64
REMARK   28  A    between atoms: _65  and  _66
REMARK   29  A    between atoms: _66  and  _67
REMARK   30  A    between atoms: _77  and  _78
REMARK   31  A    between atoms: _83  and  _85
REMARK   32  A    between atoms: _85  and  _86
REMARK   33  A    between atoms: _85  and  _88
REMARK   34  A    between atoms: _88  and  _89
REMARK   35  A    between atoms: _91  and  _93
REMARK   36  A    between atoms: _93  and  _94
REMARK   37  A    between atoms: _93  and  _96
REMARK   38  A    between atoms: _96  and  _97
REMARK   39  A    between atoms: _99  and  _101
REMARK   40  A    between atoms: _101  and  _102
REMARK   41  A    between atoms: _101  and  _104
REMARK   42  A    between atoms: _104  and  _105
REMARK   43  A    between atoms: _115  and  _117
REMARK   44  A    between atoms: _117  and  _118
REMARK   45  A    between atoms: _117  and  _120
REMARK   46  A    between atoms: _120  and  _121
REMARK   47  A    between atoms: _121  and  _122
REMARK   48  A    between atoms: _122  and  _123
REMARK   49  A    between atoms: _132  and  _134
REMARK   50  A    between atoms: _134  and  _135
REMARK   51  A    between atoms: _134  and  _137
REMARK   52  A    between atoms: _137  and  _138
REMARK   53  A    between atoms: _140  and  _142
REMARK   54  A    between atoms: _142  and  _143
REMARK   55  A    between atoms: _142  and  _145
REMARK   56  A    between atoms: _145  and  _146
REMARK   57  A    between atoms: _149  and  _151
REMARK   58  A    between atoms: _151  and  _152
REMARK   59  A    between atoms: _151  and  _154
REMARK   60  A    between atoms: _156  and  _158
REMARK   61  A    between atoms: _158  and  _159
REMARK   62  A    between atoms: _158  and  _161
REMARK   63  A    between atoms: _161  and  _162
REMARK   64  A    between atoms: _164  and  _166
REMARK   65  A    between atoms: _166  and  _167
REMARK   66  A    between atoms: _166  and  _169
REMARK   67  A    between atoms: _169  and  _170
REMARK   68  A    between atoms: _172  and  _174
REMARK   69  A    between atoms: _174  and  _175
REMARK   70  A    between atoms: _178  and  _180
REMARK   71  A    between atoms: _180  and  _181
REMARK   72  A    between atoms: _183  and  _185
REMARK   73  A    between atoms: _185  and  _186
REMARK   74  A    between atoms: _185  and  _188
REMARK   75  A    between atoms: _188  and  _189
REMARK   76  A    between atoms: _192  and  _194
REMARK   77  A    between atoms: _194  and  _195
REMARK   78  A    between atoms: _194  and  _197
REMARK   79  A    between atoms: _197  and  _198
REMARK   80  A    between atoms: _204  and  _206
REMARK   81  A    between atoms: _206  and  _207
REMARK   82  A    between atoms: _206  and  _209
REMARK   83  A    between atoms: _209  and  _210
REMARK   84  A    between atoms: _210  and  _211
REMARK   85  A    between atoms: _216  and  _218
REMARK   86  A    between atoms: _218  and  _219
REMARK   87  A    between atoms: _218  and  _221
REMARK   88  A    between atoms: _221  and  _222
REMARK   89  A    between atoms: _222  and  _223
REMARK   90  A    between atoms: _225  and  _227
REMARK   91  A    between atoms: _227  and  _228
REMARK   92  A    between atoms: _227  and  _230
REMARK   93  A    between atoms: _230  and  _231
REMARK   94  A    between atoms: _231  and  _232
REMARK   95  A    between atoms: _237  and  _239
REMARK   96  A    between atoms: _239  and  _240
REMARK   97  A    between atoms: _239  and  _242
REMARK   98  A    between atoms: _242  and  _243
REMARK   99  A    between atoms: _249  and  _251
REMARK  100  A    between atoms: _251  and  _252
REMARK  101  A    between atoms: _251  and  _254
REMARK  102  A    between atoms: _254  and  _255
REMARK  103  A    between atoms: _255  and  _256
REMARK  104  A    between atoms: _259  and  _261
REMARK  105  A    between atoms: _261  and  _262
REMARK  106  A    between atoms: _261  and  _264
REMARK  107  A    between atoms: _264  and  _265
REMARK  108  A    between atoms: _267  and  _269
REMARK  109  A    between atoms: _269  and  _270
REMARK  110  A    between atoms: _269  and  _272
REMARK  111  A    between atoms: _272  and  _273
REMARK  112  A    between atoms: _276  and  _278
REMARK  113  A    between atoms: _278  and  _279
REMARK  114  A    between atoms: _278  and  _281
REMARK  115  A    between atoms: _281  and  _282
REMARK  116  A    between atoms: _285  and  _287
REMARK  117  A    between atoms: _287  and  _288
REMARK  118  A    between atoms: _287  and  _290
REMARK  119  A    between atoms: _290  and  _291
REMARK  120  A    between atoms: _293  and  _295
REMARK  121  A    between atoms: _295  and  _296
REMARK  122  A    between atoms: _298  and  _300
REMARK  123  A    between atoms: _300  and  _301
REMARK  124  A    between atoms: _300  and  _303
REMARK  125  A    between atoms: _303  and  _304
REMARK  126  A    between atoms: _309  and  _311
REMARK  127  A    between atoms: _311  and  _312
REMARK  128  A    between atoms: _311  and  _314
REMARK  129  A    between atoms: _314  and  _315
REMARK                            x       y       z     vdW  Elec       q    Type
REMARK                         _______ _______ _______ _____ _____    ______ ____
ROOT
ATOM      1  O   HOH     1     -37.164  13.201  12.655  0.00  0.00    +0.000 OA
ENDROOT
TORSDOF 0
REMARK  Name = ../refined-set-2016/2xp7/2xp7_pocket.pdb
REMARK  129 active torsions:
REMARK  status: ('A' for Active; 'I' for Inactive)
REMARK    1  A    between atoms: _1  and  _3
REMARK    2  A    between atoms: _3  and  _4
REMARK    3  A    between atoms: _3  and  _6
REMARK    4  A    between atoms: _6  and  _7
REMARK    5  A    between atoms: _12  and  _14
REMARK    6  A    between atoms: _14  and  _15
REMARK    7  A    between atoms: _14  and  _17
REMARK    8  A    between atoms: _17  and  _18
REMARK    9  A    between atoms: _21  and  _23
REMARK   10  A    between atoms: _23  and  _24
REMARK   11  A    between atoms: _23  and  _26
REMARK   12  A    between atoms: _26  and  _27
REMARK   13  A    between atoms: _27  and  _28
REMARK   14  A    between atoms: _28  and  _29
REMARK   15  A    between atoms: _29  and  _30
REMARK   16  A    between atoms: _34  and  _36
REMARK   17  A    between atoms: _36  and  _37
REMARK   18  A    between atoms: _36  and  _39
REMARK   19  A    between atoms: _39  and  _40
REMARK   20  A    between atoms: _42  and  _44
REMARK   21  A    between atoms: _44  and  _45
REMARK   22  A    between atoms: _44  and  _47
REMARK   23  A    between atoms: _48  and  _49
REMARK   24  A    between atoms: _49  and  _50
REMARK   25  A    between atoms: _59  and  _61
REMARK   26  A    between atoms: _61  and  _62
REMARK   27  A    between atoms: _61  and  _64
REMARK   28  A    between atoms: _65  and  _66
REMARK   29  A    between atoms: _66  and  _67
REMARK   30  A    between atoms: _77  and  _78
REMARK   31  A    between atoms: _83  and  _85
REMARK   32  A    between atoms: _85  and  _86
REMARK   33  A    between atoms: _85  and  _88
REMARK   34  A    between atoms: _88  and  _89
REMARK   35  A    between atoms: _91  and  _93
REMARK   36  A    between atoms: _93  and  _94
REMARK   37  A    between atoms: _93  and  _96
REMARK   38  A    between atoms: _96  and  _97
REMARK   39  A    between atoms: _99  and  _101
REMARK   40  A    between atoms: _101  and  _102
REMARK   41  A    between atoms: _101  and  _104
REMARK   42  A    between atoms: _104  and  _105
REMARK   43  A    between atoms: _115  and  _117
REMARK   44  A    between atoms: _117  and  _118
REMARK   45  A    between atoms: _117  and  _120
REMARK   46  A    between atoms: _120  and  _121
REMARK   47  A    between atoms: _121  and  _122
REMARK   48  A    between atoms: _122  and  _123
REMARK   49  A    between atoms: _132  and  _134
REMARK   50  A    between atoms: _134  and  _135
REMARK   51  A    between atoms: _134  and  _137
REMARK   52  A    between atoms: _137  and  _138
REMARK   53  A    between atoms: _140  and  _142
REMARK   54  A    between atoms: _142  and  _143
REMARK   55  A    between atoms: _142  and  _145
REMARK   56  A    between atoms: _145  and  _146
REMARK   57  A    between atoms: _149  and  _151
REMARK   58  A    between atoms: _151  and  _152
REMARK   59  A    between atoms: _151  and  _154
REMARK   60  A    between atoms: _156  and  _158
REMARK   61  A    between atoms: _158  and  _159
REMARK   62  A    between atoms: _158  and  _161
REMARK   63  A    between atoms: _161  and  _162
REMARK   64  A    between atoms: _164  and  _166
REMARK   65  A    between atoms: _166  and  _167
REMARK   66  A    between atoms: _166  and  _169
REMARK   67  A    between atoms: _169  and  _170
REMARK   68  A    between atoms: _172  and  _174
REMARK   69  A    between atoms: _174  and  _175
REMARK   70  A    between atoms: _178  and  _180
REMARK   71  A    between atoms: _180  and  _181
REMARK   72  A    between atoms: _183  and  _185
REMARK   73  A    between atoms: _185  and  _186
REMARK   74  A    between atoms: _185  and  _188
REMARK   75  A    between atoms: _188  and  _189
REMARK   76  A    between atoms: _192  and  _194
REMARK   77  A    between atoms: _194  and  _195
REMARK   78  A    between atoms: _194  and  _197
REMARK   79  A    between atoms: _197  and  _198
REMARK   80  A    between atoms: _204  and  _206
REMARK   81  A    between atoms: _206  and  _207
REMARK   82  A    between atoms: _206  and  _209
REMARK   83  A    between atoms: _209  and  _210
REMARK   84  A    between atoms: _210  and  _211
REMARK   85  A    between atoms: _216  and  _218
REMARK   86  A    between atoms: _218  and  _219
REMARK   87  A    between atoms: _218  and  _221
REMARK   88  A    between atoms: _221  and  _222
REMARK   89  A    between atoms: _222  and  _223
REMARK   90  A    between atoms: _225  and  _227
REMARK   91  A    between atoms: _227  and  _228
REMARK   92  A    between atoms: _227  and  _230
REMARK   93  A    between atoms: _230  and  _231
REMARK   94  A    between atoms: _231  and  _232
REMARK   95  A    between atoms: _237  and  _239
REMARK   96  A    between atoms: _239  and  _240
REMARK   97  A    between atoms: _239  and  _242
REMARK   98  A    between atoms: _242  and  _243
REMARK   99  A    between atoms: _249  and  _251
REMARK  100  A    between atoms: _251  and  _252
REMARK  101  A    between atoms: _251  and  _254
REMARK  102  A    between atoms: _254  and  _255
REMARK  103  A    between atoms: _255  and  _256
REMARK  104  A    between atoms: _259  and  _261
REMARK  105  A    between atoms: _261  and  _262
REMARK  106  A    between atoms: _261  and  _264
REMARK  107  A    between atoms: _264  and  _265
REMARK  108  A    between atoms: _267  and  _269
REMARK  109  A    between atoms: _269  and  _270
REMARK  110  A    between atoms: _269  and  _272
REMARK  111  A    between atoms: _272  and  _273
REMARK  112  A    between atoms: _276  and  _278
REMARK  113  A    between atoms: _278  and  _279
REMARK  114  A    between atoms: _278  and  _281
REMARK  115  A    between atoms: _281  and  _282
REMARK  116  A    between atoms: _285  and  _287
REMARK  117  A    between atoms: _287  and  _288
REMARK  118  A    between atoms: _287  and  _290
REMARK  119  A    between atoms: _290  and  _291
REMARK  120  A    between atoms: _293  and  _295
REMARK  121  A    between atoms: _295  and  _296
REMARK  122  A    between atoms: _298  and  _300
REMARK  123  A    between atoms: _300  and  _301
REMARK  124  A    between atoms: _300  and  _303
REMARK  125  A    between atoms: _303  and  _304
REMARK  126  A    between atoms: _309  and  _311
REMARK  127  A    between atoms: _311  and  _312
REMARK  128  A    between atoms: _311  and  _314
REMARK  129  A    between atoms: _314  and  _315
REMARK                            x       y       z     vdW  Elec       q    Type
REMARK                         _______ _______ _______ _____ _____    ______ ____
ROOT
ATOM      1  O   HOH     1     -44.010  20.612  10.730  0.00  0.00    +0.000 OA
ENDROOT
TORSDOF 0
