REMARK  Name = ../refined-set-2016/1avn/1avn_pocket.pdb
REMARK  80 active torsions:
REMARK  status: ('A' for Active; 'I' for Inactive)
REMARK    1  A    between atoms: _1  and  _3
REMARK    2  A    between atoms: _3  and  _4
REMARK    3  A    between atoms: _3  and  _6
REMARK    4  A    between atoms: _6  and  _7
REMARK    5  A    between atoms: _17  and  _19
REMARK    6  A    between atoms: _19  and  _20
REMARK    7  A    between atoms: _19  and  _22
REMARK    8  A    between atoms: _22  and  _23
REMARK    9  A    between atoms: _26  and  _28
REMARK   10  A    between atoms: _28  and  _29
REMARK   11  A    between atoms: _28  and  _31
REMARK   12  A    between atoms: _31  and  _32
REMARK   13  A    between atoms: _37  and  _39
REMARK   14  A    between atoms: _39  and  _40
REMARK   15  A    between atoms: _42  and  _44
REMARK   16  A    between atoms: _44  and  _45
REMARK   17  A    between atoms: _44  and  _47
REMARK   18  A    between atoms: _47  and  _48
REMARK   19  A    between atoms: _53  and  _55
REMARK   20  A    between atoms: _55  and  _56
REMARK   21  A    between atoms: _59  and  _61
REMARK   22  A    between atoms: _61  and  _62
REMARK   23  A    between atoms: _61  and  _64
REMARK   24  A    between atoms: _64  and  _65
REMARK   25  A    between atoms: _71  and  _73
REMARK   26  A    between atoms: _73  and  _74
REMARK   27  A    between atoms: _73  and  _76
REMARK   28  A    between atoms: _76  and  _77
REMARK   29  A    between atoms: _82  and  _84
REMARK   30  A    between atoms: _84  and  _85
REMARK   31  A    between atoms: _84  and  _87
REMARK   32  A    between atoms: _87  and  _88
REMARK   33  A    between atoms: _88  and  _89
REMARK   34  A    between atoms: _92  and  _94
REMARK   35  A    between atoms: _94  and  _95
REMARK   36  A    between atoms: _94  and  _97
REMARK   37  A    between atoms: _97  and  _98
REMARK   38  A    between atoms: _101  and  _103
REMARK   39  A    between atoms: _103  and  _104
REMARK   40  A    between atoms: _103  and  _106
REMARK   41  A    between atoms: _106  and  _107
REMARK   42  A    between atoms: _107  and  _108
REMARK   43  A    between atoms: _113  and  _115
REMARK   44  A    between atoms: _115  and  _116
REMARK   45  A    between atoms: _115  and  _118
REMARK   46  A    between atoms: _118  and  _119
REMARK   47  A    between atoms: _125  and  _127
REMARK   48  A    between atoms: _127  and  _128
REMARK   49  A    between atoms: _127  and  _130
REMARK   50  A    between atoms: _130  and  _131
REMARK   51  A    between atoms: _135  and  ZN_212
REMARK   52  A    between atoms: _136  and  _138
REMARK   53  A    between atoms: _138  and  _139
REMARK   54  A    between atoms: _138  and  _141
REMARK   55  A    between atoms: _141  and  _142
REMARK   56  A    between atoms: _146  and  ZN_212
REMARK   57  A    between atoms: _147  and  _149
REMARK   58  A    between atoms: _149  and  _150
REMARK   59  A    between atoms: _149  and  _152
REMARK   60  A    between atoms: _155  and  _157
REMARK   61  A    between atoms: _157  and  _158
REMARK   62  A    between atoms: _157  and  _160
REMARK   63  A    between atoms: _160  and  _161
REMARK   64  A    between atoms: _167  and  _169
REMARK   65  A    between atoms: _169  and  _170
REMARK   66  A    between atoms: _169  and  _172
REMARK   67  A    between atoms: _172  and  _173
REMARK   68  A    between atoms: _173  and  _174
REMARK   69  A    between atoms: _174  and  _175
REMARK   70  A    between atoms: _175  and  _176
REMARK   71  A    between atoms: _180  and  _182
REMARK   72  A    between atoms: _182  and  _183
REMARK   73  A    between atoms: _182  and  _185
REMARK   74  A    between atoms: _185  and  _186
REMARK   75  A    between atoms: _189  and  _191
REMARK   76  A    between atoms: _191  and  _192
REMARK   77  A    between atoms: _191  and  _194
REMARK   78  A    between atoms: _194  and  _195
REMARK   79  A    between atoms: _199  and  _200
REMARK   80  A    between atoms: _206  and  _207
REMARK                            x       y       z     vdW  Elec       q    Type
REMARK                         _______ _______ _______ _____ _____    ______ ____
ROOT
ATOM      1  CG  TRP A   1       5.815  -0.008  12.192  0.00  0.00    -0.002 A 
ATOM      2  CD2 TRP A   1       4.447  -0.496  12.143  0.00  0.00    +0.013 A 
ATOM      3  CE3 TRP A   1       3.849  -1.731  12.444  0.00  0.00    +0.001 A 
ATOM      4  CZ3 TRP A   1       2.495  -1.884  12.249  0.00  0.00    +0.000 A 
ATOM      5  CH2 TRP A   1       1.704  -0.824  11.800  0.00  0.00    +0.001 A 
ATOM      6  CZ2 TRP A   1       2.271   0.356  11.464  0.00  0.00    +0.017 A 
ATOM      7  CE2 TRP A   1       3.647   0.541  11.645  0.00  0.00    +0.056 A 
ATOM      8  NE1 TRP A   1       4.471   1.657  11.442  0.00  0.00    -0.352 N 
ATOM      9  HE1 TRP A   1       4.168   2.590  11.097  0.00  0.00    +0.166 HD
ATOM     10  CD1 TRP A   1       5.771   1.288  11.787  0.00  0.00    +0.068 A 
ENDROOT
BRANCH   1  11
ATOM     11  CB  TRP A   1       7.004  -0.831  12.625  0.00  0.00    +0.053 C 
BRANCH  11  12
ATOM     12  CA  TRP A   1       7.697  -1.520  11.411  0.00  0.00    +0.137 C 
BRANCH  12  13
ATOM     13  N   TRP A   1       8.443  -0.522  10.583  0.00  0.00    -0.239 NA
ATOM     14  H   TRP A   1       8.345   0.489  10.808  0.00  0.00    +0.142 HD
ENDBRANCH  12  13
BRANCH  12  15
ATOM     15  C   TRP A   1       6.707  -2.310  10.573  0.00  0.00    +0.224 C 
ATOM     16  O   TRP A   1       6.178  -1.833   9.552  0.00  0.00    -0.287 OA
ENDBRANCH  12  15
ENDBRANCH  11  12
ENDBRANCH   1  11
TORSDOF 4
REMARK  Name = ../refined-set-2016/1avn/1avn_pocket.pdb
REMARK  80 active torsions:
REMARK  status: ('A' for Active; 'I' for Inactive)
REMARK    1  A    between atoms: _1  and  _3
REMARK    2  A    between atoms: _3  and  _4
REMARK    3  A    between atoms: _3  and  _6
REMARK    4  A    between atoms: _6  and  _7
REMARK    5  A    between atoms: _17  and  _19
REMARK    6  A    between atoms: _19  and  _20
REMARK    7  A    between atoms: _19  and  _22
REMARK    8  A    between atoms: _22  and  _23
REMARK    9  A    between atoms: _26  and  _28
REMARK   10  A    between atoms: _28  and  _29
REMARK   11  A    between atoms: _28  and  _31
REMARK   12  A    between atoms: _31  and  _32
REMARK   13  A    between atoms: _37  and  _39
REMARK   14  A    between atoms: _39  and  _40
REMARK   15  A    between atoms: _42  and  _44
REMARK   16  A    between atoms: _44  and  _45
REMARK   17  A    between atoms: _44  and  _47
REMARK   18  A    between atoms: _47  and  _48
REMARK   19  A    between atoms: _53  and  _55
REMARK   20  A    between atoms: _55  and  _56
REMARK   21  A    between atoms: _59  and  _61
REMARK   22  A    between atoms: _61  and  _62
REMARK   23  A    between atoms: _61  and  _64
REMARK   24  A    between atoms: _64  and  _65
REMARK   25  A    between atoms: _71  and  _73
REMARK   26  A    between atoms: _73  and  _74
REMARK   27  A    between atoms: _73  and  _76
REMARK   28  A    between atoms: _76  and  _77
REMARK   29  A    between atoms: _82  and  _84
REMARK   30  A    between atoms: _84  and  _85
REMARK   31  A    between atoms: _84  and  _87
REMARK   32  A    between atoms: _87  and  _88
REMARK   33  A    between atoms: _88  and  _89
REMARK   34  A    between atoms: _92  and  _94
REMARK   35  A    between atoms: _94  and  _95
REMARK   36  A    between atoms: _94  and  _97
REMARK   37  A    between atoms: _97  and  _98
REMARK   38  A    between atoms: _101  and  _103
REMARK   39  A    between atoms: _103  and  _104
REMARK   40  A    between atoms: _103  and  _106
REMARK   41  A    between atoms: _106  and  _107
REMARK   42  A    between atoms: _107  and  _108
REMARK   43  A    between atoms: _113  and  _115
REMARK   44  A    between atoms: _115  and  _116
REMARK   45  A    between atoms: _115  and  _118
REMARK   46  A    between atoms: _118  and  _119
REMARK   47  A    between atoms: _125  and  _127
REMARK   48  A    between atoms: _127  and  _128
REMARK   49  A    between atoms: _127  and  _130
REMARK   50  A    between atoms: _130  and  _131
REMARK   51  A    between atoms: _135  and  ZN_212
REMARK   52  A    between atoms: _136  and  _138
REMARK   53  A    between atoms: _138  and  _139
REMARK   54  A    between atoms: _138  and  _141
REMARK   55  A    between atoms: _141  and  _142
REMARK   56  A    between atoms: _146  and  ZN_212
REMARK   57  A    between atoms: _147  and  _149
REMARK   58  A    between atoms: _149  and  _150
REMARK   59  A    between atoms: _149  and  _152
REMARK   60  A    between atoms: _155  and  _157
REMARK   61  A    between atoms: _157  and  _158
REMARK   62  A    between atoms: _157  and  _160
REMARK   63  A    between atoms: _160  and  _161
REMARK   64  A    between atoms: _167  and  _169
REMARK   65  A    between atoms: _169  and  _170
REMARK   66  A    between atoms: _169  and  _172
REMARK   67  A    between atoms: _172  and  _173
REMARK   68  A    between atoms: _173  and  _174
REMARK   69  A    between atoms: _174  and  _175
REMARK   70  A    between atoms: _175  and  _176
REMARK   71  A    between atoms: _180  and  _182
REMARK   72  A    between atoms: _182  and  _183
REMARK   73  A    between atoms: _182  and  _185
REMARK   74  A    between atoms: _185  and  _186
REMARK   75  A    between atoms: _189  and  _191
REMARK   76  A    between atoms: _191  and  _192
REMARK   77  A    between atoms: _191  and  _194
REMARK   78  A    between atoms: _194  and  _195
REMARK   79  A    between atoms: _199  and  _200
REMARK   80  A    between atoms: _206  and  _207
REMARK                            x       y       z     vdW  Elec       q    Type
REMARK                         _______ _______ _______ _____ _____    ______ ____
ROOT
ATOM      1  CA  LEU A   1      -7.509   2.034   1.603  0.00  0.00    +0.133 C 
ENDROOT
BRANCH   1   2
ATOM      2  N   LEU A   1      -8.909   1.977   2.017  0.00  0.00    -0.239 NA
ATOM      3  H   LEU A   1      -9.146   1.755   3.005  0.00  0.00    +0.142 HD
ENDBRANCH   1   2
BRANCH   1   4
ATOM      4  C   LEU A   1      -6.654   0.957   2.187  0.00  0.00    +0.224 C 
ATOM      5  O   LEU A   1      -6.839   0.638   3.365  0.00  0.00    -0.287 OA
ENDBRANCH   1   4
BRANCH   1   6
ATOM      6  CB  LEU A   1      -7.003   3.402   2.176  0.00  0.00    +0.025 C 
BRANCH   6   7
ATOM      7  CG  LEU A   1      -5.526   3.628   2.347  0.00  0.00    +0.002 C 
ATOM      8  CD2 LEU A   1      -5.119   4.443   3.564  0.00  0.00    +0.000 C 
ATOM      9  CD1 LEU A   1      -4.861   4.286   1.131  0.00  0.00    +0.000 C 
ENDBRANCH   6   7
ENDBRANCH   1   6
TORSDOF 4
REMARK  Name = ../refined-set-2016/1avn/1avn_pocket.pdb
REMARK  80 active torsions:
REMARK  status: ('A' for Active; 'I' for Inactive)
REMARK    1  A    between atoms: _1  and  _3
REMARK    2  A    between atoms: _3  and  _4
REMARK    3  A    between atoms: _3  and  _6
REMARK    4  A    between atoms: _6  and  _7
REMARK    5  A    between atoms: _17  and  _19
REMARK    6  A    between atoms: _19  and  _20
REMARK    7  A    between atoms: _19  and  _22
REMARK    8  A    between atoms: _22  and  _23
REMARK    9  A    between atoms: _26  and  _28
REMARK   10  A    between atoms: _28  and  _29
REMARK   11  A    between atoms: _28  and  _31
REMARK   12  A    between atoms: _31  and  _32
REMARK   13  A    between atoms: _37  and  _39
REMARK   14  A    between atoms: _39  and  _40
REMARK   15  A    between atoms: _42  and  _44
REMARK   16  A    between atoms: _44  and  _45
REMARK   17  A    between atoms: _44  and  _47
REMARK   18  A    between atoms: _47  and  _48
REMARK   19  A    between atoms: _53  and  _55
REMARK   20  A    between atoms: _55  and  _56
REMARK   21  A    between atoms: _59  and  _61
REMARK   22  A    between atoms: _61  and  _62
REMARK   23  A    between atoms: _61  and  _64
REMARK   24  A    between atoms: _64  and  _65
REMARK   25  A    between atoms: _71  and  _73
REMARK   26  A    between atoms: _73  and  _74
REMARK   27  A    between atoms: _73  and  _76
REMARK   28  A    between atoms: _76  and  _77
REMARK   29  A    between atoms: _82  and  _84
REMARK   30  A    between atoms: _84  and  _85
REMARK   31  A    between atoms: _84  and  _87
REMARK   32  A    between atoms: _87  and  _88
REMARK   33  A    between atoms: _88  and  _89
REMARK   34  A    between atoms: _92  and  _94
REMARK   35  A    between atoms: _94  and  _95
REMARK   36  A    between atoms: _94  and  _97
REMARK   37  A    between atoms: _97  and  _98
REMARK   38  A    between atoms: _101  and  _103
REMARK   39  A    between atoms: _103  and  _104
REMARK   40  A    between atoms: _103  and  _106
REMARK   41  A    between atoms: _106  and  _107
REMARK   42  A    between atoms: _107  and  _108
REMARK   43  A    between atoms: _113  and  _115
REMARK   44  A    between atoms: _115  and  _116
REMARK   45  A    between atoms: _115  and  _118
REMARK   46  A    between atoms: _118  and  _119
REMARK   47  A    between atoms: _125  and  _127
REMARK   48  A    between atoms: _127  and  _128
REMARK   49  A    between atoms: _127  and  _130
REMARK   50  A    between atoms: _130  and  _131
REMARK   51  A    between atoms: _135  and  ZN_212
REMARK   52  A    between atoms: _136  and  _138
REMARK   53  A    between atoms: _138  and  _139
REMARK   54  A    between atoms: _138  and  _141
REMARK   55  A    between atoms: _141  and  _142
REMARK   56  A    between atoms: _146  and  ZN_212
REMARK   57  A    between atoms: _147  and  _149
REMARK   58  A    between atoms: _149  and  _150
REMARK   59  A    between atoms: _149  and  _152
REMARK   60  A    between atoms: _155  and  _157
REMARK   61  A    between atoms: _157  and  _158
REMARK   62  A    between atoms: _157  and  _160
REMARK   63  A    between atoms: _160  and  _161
REMARK   64  A    between atoms: _167  and  _169
REMARK   65  A    between atoms: _169  and  _170
REMARK   66  A    between atoms: _169  and  _172
REMARK   67  A    between atoms: _172  and  _173
REMARK   68  A    between atoms: _173  and  _174
REMARK   69  A    between atoms: _174  and  _175
REMARK   70  A    between atoms: _175  and  _176
REMARK   71  A    between atoms: _180  and  _182
REMARK   72  A    between atoms: _182  and  _183
REMARK   73  A    between atoms: _182  and  _185
REMARK   74  A    between atoms: _185  and  _186
REMARK   75  A    between atoms: _189  and  _191
REMARK   76  A    between atoms: _191  and  _192
REMARK   77  A    between atoms: _191  and  _194
REMARK   78  A    between atoms: _194  and  _195
REMARK   79  A    between atoms: _199  and  _200
REMARK   80  A    between atoms: _206  and  _207
REMARK                            x       y       z     vdW  Elec       q    Type
REMARK                         _______ _______ _______ _____ _____    ______ ____
ROOT
ATOM      1  C   HIS A   3      -2.120  -3.374   7.946  0.00  0.00    +0.241 C 
ATOM      2  O   HIS A   3      -2.321  -4.293   8.741  0.00  0.00    -0.273 OA
ATOM      3  N   ALA A   4      -3.136  -2.822   7.324  0.00  0.00    -0.297 N 
ATOM      4  H   ALA A   4      -2.943  -2.039   6.668  0.00  0.00    +0.150 HD
ENDROOT
BRANCH   3   5
ATOM      5  CA  ALA A   4      -4.498  -3.240   7.500  0.00  0.00    +0.149 C 
ATOM      6  CB  ALA A   4      -5.134  -2.711   8.783  0.00  0.00    +0.031 C 
BRANCH   5   7
ATOM      7  C   ALA A   4      -5.246  -2.531   6.366  0.00  0.00    +0.241 C 
ATOM      8  N   PHE A   5      -6.538  -2.564   6.281  0.00  0.00    -0.297 N 
ATOM      9  H   PHE A   5      -7.051  -3.177   6.946  0.00  0.00    +0.150 HD
ATOM     10  O   ALA A   4      -4.598  -1.885   5.570  0.00  0.00    -0.273 OA
BRANCH   8  11
ATOM     11  CA  PHE A   5      -7.310  -1.815   5.334  0.00  0.00    +0.153 C 
BRANCH  11  12
ATOM     12  C   PHE A   5      -8.200  -0.954   6.259  0.00  0.00    +0.241 C 
ATOM     13  O   PHE A   5      -8.820  -1.403   7.264  0.00  0.00    -0.273 OA
ATOM     14  N   ASN A   6      -8.316   0.297   5.908  0.00  0.00    -0.302 N 
ATOM     15  H   ASN A   6      -7.794   0.632   5.073  0.00  0.00    +0.150 HD
BRANCH  14  16
ATOM     16  CA  ASN A   6      -9.140   1.236   6.632  0.00  0.00    +0.114 C 
BRANCH  16  17
ATOM     17  C   ASN A   6     -10.382   1.713   5.952  0.00  0.00    +0.202 C 
ATOM     18  O   ASN A   6     -10.185   2.020   4.736  0.00  0.00    -0.219 OA
ENDBRANCH  16  17
BRANCH  16  19
ATOM     19  CB  ASN A   6      -8.357   2.526   6.920  0.00  0.00    +0.107 C 
BRANCH  19  20
ATOM     20  CG  ASN A   6      -7.413   2.539   8.089  0.00  0.00    +0.221 C 
ATOM     21  ND2 ASN A   6      -7.110   1.393   8.677  0.00  0.00    -0.329 N 
ATOM     22 HD21 ASN A   6      -6.413   1.373   9.448  0.00  0.00    +0.145 HD
ATOM     23 HD22 ASN A   6      -7.569   0.513   8.368  0.00  0.00    +0.145 HD
ATOM     24  OD1 ASN A   6      -6.822   3.516   8.522  0.00  0.00    -0.275 OA
ENDBRANCH  19  20
ENDBRANCH  16  19
ENDBRANCH  14  16
ENDBRANCH  11  12
BRANCH  11  25
ATOM     25  CB  PHE A   5      -8.185  -2.517   4.274  0.00  0.00    +0.055 C 
BRANCH  25  26
ATOM     26  CG  PHE A   5      -9.275  -3.436   4.753  0.00  0.00    -0.020 A 
ATOM     27  CD2 PHE A   5     -10.529  -2.953   5.037  0.00  0.00    -0.004 A 
ATOM     28  CE2 PHE A   5     -11.520  -3.763   5.502  0.00  0.00    -0.000 A 
ATOM     29  CZ  PHE A   5     -11.214  -5.095   5.706  0.00  0.00    -0.000 A 
ATOM     30  CE1 PHE A   5      -9.982  -5.636   5.454  0.00  0.00    -0.000 A 
ATOM     31  CD1 PHE A   5      -9.004  -4.794   4.954  0.00  0.00    -0.004 A 
ENDBRANCH  25  26
ENDBRANCH  11  25
ENDBRANCH   8  11
ENDBRANCH   5   7
ENDBRANCH   3   5
BRANCH   1  32
ATOM     32  CA  HIS A   3      -0.687  -2.937   7.681  0.00  0.00    +0.155 C 
BRANCH  32  34
ATOM     33  C   GLY A   2       0.314  -2.389   5.537  0.00  0.00    +0.243 C 
ATOM     34  N   HIS A   3      -0.631  -2.167   6.432  0.00  0.00    -0.297 N 
ATOM     35  H   HIS A   3      -1.347  -1.435   6.249  0.00  0.00    +0.150 HD
ATOM     36  O   GLY A   2       1.249  -3.164   5.678  0.00  0.00    -0.273 OA
BRANCH  33  37
ATOM     37  CA  GLY A   2       0.302  -1.632   4.200  0.00  0.00    +0.176 C 
BRANCH  37  40
ATOM     38  C   ASN A   1      -0.892   0.421   4.392  0.00  0.00    +0.239 C 
ATOM     39  O   ASN A   1      -0.001   1.050   4.956  0.00  0.00    -0.274 OA
ATOM     40  N   GLY A   2      -0.853  -0.852   3.979  0.00  0.00    -0.296 N 
ATOM     41  H   GLY A   2      -1.675  -1.266   3.495  0.00  0.00    +0.150 HD
BRANCH  38  42
ATOM     42  CA  ASN A   1      -2.165   1.227   4.154  0.00  0.00    +0.154 C 
BRANCH  42  43
ATOM     43  N   ASN A   1      -3.280   0.388   3.701  0.00  0.00    -0.238 NA
ATOM     44  H   ASN A   1      -3.867  -0.105   4.404  0.00  0.00    +0.142 HD
ENDBRANCH  42  43
BRANCH  42  45
ATOM     45  CB  ASN A   1      -2.438   2.048   5.421  0.00  0.00    +0.111 C 
BRANCH  45  46
ATOM     46  CG  ASN A   1      -2.904   1.180   6.566  0.00  0.00    +0.221 C 
ATOM     47  ND2 ASN A   1      -3.717   1.733   7.437  0.00  0.00    -0.329 N 
ATOM     48 HD21 ASN A   1      -4.067   1.180   8.245  0.00  0.00    +0.145 HD
ATOM     49 HD22 ASN A   1      -4.011   2.724   7.318  0.00  0.00    +0.145 HD
ATOM     50  OD1 ASN A   1      -2.526   0.040   6.645  0.00  0.00    -0.275 OA
ENDBRANCH  45  46
ENDBRANCH  42  45
ENDBRANCH  38  42
ENDBRANCH  37  40
ENDBRANCH  33  37
ENDBRANCH  32  34
BRANCH  32  51
ATOM     51  CB  HIS A   3      -0.132  -2.371   8.924  0.00  0.00    +0.076 C 
BRANCH  51  52
ATOM     52  CG  HIS A   3      -0.578  -0.985   9.188  0.00  0.00    +0.082 A 
ATOM     53  ND1 HIS A   3      -1.686  -0.699   9.966  0.00  0.00    -0.227 NA
ATOM     54  CE1 HIS A   3      -1.788   0.625  10.062  0.00  0.00    +0.199 A 
ATOM     55  NE2 HIS A   3      -0.810   1.202   9.371  0.00  0.00    -0.221 NA
ATOM     56  CD2 HIS A   3      -0.037   0.204   8.800  0.00  0.00    +0.115 A 
ENDBRANCH  51  52
ENDBRANCH  32  51
ENDBRANCH   1  32
TORSDOF 20
REMARK  Name = ../refined-set-2016/1avn/1avn_pocket.pdb
REMARK  80 active torsions:
REMARK  status: ('A' for Active; 'I' for Inactive)
REMARK    1  A    between atoms: _1  and  _3
REMARK    2  A    between atoms: _3  and  _4
REMARK    3  A    between atoms: _3  and  _6
REMARK    4  A    between atoms: _6  and  _7
REMARK    5  A    between atoms: _17  and  _19
REMARK    6  A    between atoms: _19  and  _20
REMARK    7  A    between atoms: _19  and  _22
REMARK    8  A    between atoms: _22  and  _23
REMARK    9  A    between atoms: _26  and  _28
REMARK   10  A    between atoms: _28  and  _29
REMARK   11  A    between atoms: _28  and  _31
REMARK   12  A    between atoms: _31  and  _32
REMARK   13  A    between atoms: _37  and  _39
REMARK   14  A    between atoms: _39  and  _40
REMARK   15  A    between atoms: _42  and  _44
REMARK   16  A    between atoms: _44  and  _45
REMARK   17  A    between atoms: _44  and  _47
REMARK   18  A    between atoms: _47  and  _48
REMARK   19  A    between atoms: _53  and  _55
REMARK   20  A    between atoms: _55  and  _56
REMARK   21  A    between atoms: _59  and  _61
REMARK   22  A    between atoms: _61  and  _62
REMARK   23  A    between atoms: _61  and  _64
REMARK   24  A    between atoms: _64  and  _65
REMARK   25  A    between atoms: _71  and  _73
REMARK   26  A    between atoms: _73  and  _74
REMARK   27  A    between atoms: _73  and  _76
REMARK   28  A    between atoms: _76  and  _77
REMARK   29  A    between atoms: _82  and  _84
REMARK   30  A    between atoms: _84  and  _85
REMARK   31  A    between atoms: _84  and  _87
REMARK   32  A    between atoms: _87  and  _88
REMARK   33  A    between atoms: _88  and  _89
REMARK   34  A    between atoms: _92  and  _94
REMARK   35  A    between atoms: _94  and  _95
REMARK   36  A    between atoms: _94  and  _97
REMARK   37  A    between atoms: _97  and  _98
REMARK   38  A    between atoms: _101  and  _103
REMARK   39  A    between atoms: _103  and  _104
REMARK   40  A    between atoms: _103  and  _106
REMARK   41  A    between atoms: _106  and  _107
REMARK   42  A    between atoms: _107  and  _108
REMARK   43  A    between atoms: _113  and  _115
REMARK   44  A    between atoms: _115  and  _116
REMARK   45  A    between atoms: _115  and  _118
REMARK   46  A    between atoms: _118  and  _119
REMARK   47  A    between atoms: _125  and  _127
REMARK   48  A    between atoms: _127  and  _128
REMARK   49  A    between atoms: _127  and  _130
REMARK   50  A    between atoms: _130  and  _131
REMARK   51  A    between atoms: _135  and  ZN_212
REMARK   52  A    between atoms: _136  and  _138
REMARK   53  A    between atoms: _138  and  _139
REMARK   54  A    between atoms: _138  and  _141
REMARK   55  A    between atoms: _141  and  _142
REMARK   56  A    between atoms: _146  and  ZN_212
REMARK   57  A    between atoms: _147  and  _149
REMARK   58  A    between atoms: _149  and  _150
REMARK   59  A    between atoms: _149  and  _152
REMARK   60  A    between atoms: _155  and  _157
REMARK   61  A    between atoms: _157  and  _158
REMARK   62  A    between atoms: _157  and  _160
REMARK   63  A    between atoms: _160  and  _161
REMARK   64  A    between atoms: _167  and  _169
REMARK   65  A    between atoms: _169  and  _170
REMARK   66  A    between atoms: _169  and  _172
REMARK   67  A    between atoms: _172  and  _173
REMARK   68  A    between atoms: _173  and  _174
REMARK   69  A    between atoms: _174  and  _175
REMARK   70  A    between atoms: _175  and  _176
REMARK   71  A    between atoms: _180  and  _182
REMARK   72  A    between atoms: _182  and  _183
REMARK   73  A    between atoms: _182  and  _185
REMARK   74  A    between atoms: _185  and  _186
REMARK   75  A    between atoms: _189  and  _191
REMARK   76  A    between atoms: _191  and  _192
REMARK   77  A    between atoms: _191  and  _194
REMARK   78  A    between atoms: _194  and  _195
REMARK   79  A    between atoms: _199  and  _200
REMARK   80  A    between atoms: _206  and  _207
REMARK                            x       y       z     vdW  Elec       q    Type
REMARK                         _______ _______ _______ _____ _____    ______ ____
ROOT
ATOM      1  CA  GLU A   1     -12.699   6.280   6.266  0.00  0.00    +0.134 C 
ENDROOT
BRANCH   1   2
ATOM      2  N   GLU A   1     -12.715   4.943   5.761  0.00  0.00    -0.239 NA
ATOM      3  H   GLU A   1     -12.677   4.855   4.725  0.00  0.00    +0.142 HD
ENDBRANCH   1   2
BRANCH   1   4
ATOM      4  C   GLU A   1     -14.009   7.027   6.133  0.00  0.00    +0.224 C 
ATOM      5  O   GLU A   1     -14.670   6.822   5.093  0.00  0.00    -0.287 OA
ENDBRANCH   1   4
BRANCH   1   6
ATOM      6  CB  GLU A   1     -11.762   7.119   5.362  0.00  0.00    +0.037 C 
BRANCH   6   7
ATOM      7  CG  GLU A   1     -10.352   6.644   5.677  0.00  0.00    +0.116 C 
BRANCH   7   8
ATOM      8  CD  GLU A   1      -9.249   7.194   4.797  0.00  0.00    +0.365 C 
ATOM      9  OE2 GLU A   1      -8.115   7.359   5.320  0.00  0.00    -0.246 OA
ATOM     10  OE1 GLU A   1      -9.550   7.435   3.612  0.00  0.00    -0.246 OA
ENDBRANCH   7   8
ENDBRANCH   6   7
ENDBRANCH   1   6
TORSDOF 5
REMARK  Name = ../refined-set-2016/1avn/1avn_pocket.pdb
REMARK  80 active torsions:
REMARK  status: ('A' for Active; 'I' for Inactive)
REMARK    1  A    between atoms: _1  and  _3
REMARK    2  A    between atoms: _3  and  _4
REMARK    3  A    between atoms: _3  and  _6
REMARK    4  A    between atoms: _6  and  _7
REMARK    5  A    between atoms: _17  and  _19
REMARK    6  A    between atoms: _19  and  _20
REMARK    7  A    between atoms: _19  and  _22
REMARK    8  A    between atoms: _22  and  _23
REMARK    9  A    between atoms: _26  and  _28
REMARK   10  A    between atoms: _28  and  _29
REMARK   11  A    between atoms: _28  and  _31
REMARK   12  A    between atoms: _31  and  _32
REMARK   13  A    between atoms: _37  and  _39
REMARK   14  A    between atoms: _39  and  _40
REMARK   15  A    between atoms: _42  and  _44
REMARK   16  A    between atoms: _44  and  _45
REMARK   17  A    between atoms: _44  and  _47
REMARK   18  A    between atoms: _47  and  _48
REMARK   19  A    between atoms: _53  and  _55
REMARK   20  A    between atoms: _55  and  _56
REMARK   21  A    between atoms: _59  and  _61
REMARK   22  A    between atoms: _61  and  _62
REMARK   23  A    between atoms: _61  and  _64
REMARK   24  A    between atoms: _64  and  _65
REMARK   25  A    between atoms: _71  and  _73
REMARK   26  A    between atoms: _73  and  _74
REMARK   27  A    between atoms: _73  and  _76
REMARK   28  A    between atoms: _76  and  _77
REMARK   29  A    between atoms: _82  and  _84
REMARK   30  A    between atoms: _84  and  _85
REMARK   31  A    between atoms: _84  and  _87
REMARK   32  A    between atoms: _87  and  _88
REMARK   33  A    between atoms: _88  and  _89
REMARK   34  A    between atoms: _92  and  _94
REMARK   35  A    between atoms: _94  and  _95
REMARK   36  A    between atoms: _94  and  _97
REMARK   37  A    between atoms: _97  and  _98
REMARK   38  A    between atoms: _101  and  _103
REMARK   39  A    between atoms: _103  and  _104
REMARK   40  A    between atoms: _103  and  _106
REMARK   41  A    between atoms: _106  and  _107
REMARK   42  A    between atoms: _107  and  _108
REMARK   43  A    between atoms: _113  and  _115
REMARK   44  A    between atoms: _115  and  _116
REMARK   45  A    between atoms: _115  and  _118
REMARK   46  A    between atoms: _118  and  _119
REMARK   47  A    between atoms: _125  and  _127
REMARK   48  A    between atoms: _127  and  _128
REMARK   49  A    between atoms: _127  and  _130
REMARK   50  A    between atoms: _130  and  _131
REMARK   51  A    between atoms: _135  and  ZN_212
REMARK   52  A    between atoms: _136  and  _138
REMARK   53  A    between atoms: _138  and  _139
REMARK   54  A    between atoms: _138  and  _141
REMARK   55  A    between atoms: _141  and  _142
REMARK   56  A    between atoms: _146  and  ZN_212
REMARK   57  A    between atoms: _147  and  _149
REMARK   58  A    between atoms: _149  and  _150
REMARK   59  A    between atoms: _149  and  _152
REMARK   60  A    between atoms: _155  and  _157
REMARK   61  A    between atoms: _157  and  _158
REMARK   62  A    between atoms: _157  and  _160
REMARK   63  A    between atoms: _160  and  _161
REMARK   64  A    between atoms: _167  and  _169
REMARK   65  A    between atoms: _169  and  _170
REMARK   66  A    between atoms: _169  and  _172
REMARK   67  A    between atoms: _172  and  _173
REMARK   68  A    between atoms: _173  and  _174
REMARK   69  A    between atoms: _174  and  _175
REMARK   70  A    between atoms: _175  and  _176
REMARK   71  A    between atoms: _180  and  _182
REMARK   72  A    between atoms: _182  and  _183
REMARK   73  A    between atoms: _182  and  _185
REMARK   74  A    between atoms: _185  and  _186
REMARK   75  A    between atoms: _189  and  _191
REMARK   76  A    between atoms: _191  and  _192
REMARK   77  A    between atoms: _191  and  _194
REMARK   78  A    between atoms: _194  and  _195
REMARK   79  A    between atoms: _199  and  _200
REMARK   80  A    between atoms: _206  and  _207
REMARK                            x       y       z     vdW  Elec       q    Type
REMARK                         _______ _______ _______ _____ _____    ______ ____
ROOT
ATOM      1  CA  PHE A   3     -12.715   1.446  11.116  0.00  0.00    +0.000 C 
ENDROOT
BRANCH   1   4
ATOM      2  C   GLN A   2     -12.376   3.817  11.078  0.00  0.00    +0.000 C 
ATOM      3  O   GLN A   2     -12.297   3.908  12.328  0.00  0.00    +0.000 OA
ATOM      4  N   PHE A   3     -12.675   2.728  10.391  0.00  0.00    +0.000 N 
ATOM      5  H   PHE A   3     -12.876   2.775   9.372  0.00  0.00    +0.000 HD
BRANCH   2   6
ATOM      6  CA  GLN A   2     -12.157   5.183  10.475  0.00  0.00    +0.000 C 
BRANCH   6   8
ATOM      7  C   UNK A   1     -12.648   7.605  10.824  0.00  0.00    +0.000 C 
ATOM      8  N   GLN A   2     -12.413   6.355  11.265  0.00  0.00    +0.000 N 
ATOM      9  H   GLN A   2     -12.417   6.223  12.297  0.00  0.00    +0.000 HD
ATOM     10  O   UNK A   1     -12.609   7.703   9.565  0.00  0.00    +0.000 OA
BRANCH   7  11
ATOM     11  C   UNK A   1     -12.883   8.770  11.847  0.00  0.00    +0.000 C 
BRANCH  11  12
ATOM     12  N   UNK A   1     -13.823   8.358  12.827  0.00  0.00    +0.000 NA
ATOM     13  H   UNK A   1     -13.442   7.709  13.545  0.00  0.00    +0.000 HD
ENDBRANCH  11  12
BRANCH  11  14
ATOM     14  C   UNK A   1     -11.588   9.296  12.431  0.00  0.00    +0.000 C 
ATOM     15  C   UNK A   1     -10.915   8.401  13.413  0.00  0.00    +0.000 C 
BRANCH  14  16
ATOM     16  C   UNK A   1     -10.822   9.649  11.139  0.00  0.00    +0.000 C 
ATOM     17  C   UNK A   1      -9.705  10.638  11.297  0.00  0.00    +0.000 C 
ENDBRANCH  14  16
ENDBRANCH  11  14
ENDBRANCH   7  11
ENDBRANCH   6   8
BRANCH   6  18
ATOM     18  CB  GLN A   2     -10.734   5.133   9.900  0.00  0.00    +0.000 C 
BRANCH  18  19
ATOM     19  CG  GLN A   2      -9.708   5.362  11.046  0.00  0.00    +0.000 C 
BRANCH  19  20
ATOM     20  CD  GLN A   2      -8.757   4.278  11.407  0.00  0.00    +0.000 C 
ATOM     21  NE2 GLN A   2      -7.528   4.453  11.888  0.00  0.00    +0.000 N 
ATOM     22 HE21 GLN A   2      -6.946   3.629  12.139  0.00  0.00    +0.000 HD
ATOM     23 HE22 GLN A   2      -7.150   5.414  12.012  0.00  0.00    +0.000 HD
ATOM     24  OE1 GLN A   2      -9.069   3.077  11.315  0.00  0.00    +0.000 OA
ENDBRANCH  19  20
ENDBRANCH  18  19
ENDBRANCH   6  18
ENDBRANCH   2   6
ENDBRANCH   1   4
BRANCH   1  25
ATOM     25  C   PHE A   3     -11.707   0.574  10.362  0.00  0.00    +0.000 C 
ATOM     26  N   UNK A   4     -11.179  -0.428  11.007  0.00  0.00    +0.000 N 
ATOM     27  H   UNK A   4     -11.424  -0.553  12.010  0.00  0.00    +0.000 HD
ATOM     28  O   PHE A   3     -11.395   0.812   9.184  0.00  0.00    +0.000 OA
BRANCH  26  29
ATOM     29  C   UNK A   4     -10.263  -1.382  10.396  0.00  0.00    +0.000 C 
BRANCH  29  30
ATOM     30  C   UNK A   4     -10.293  -2.672  11.202  0.00  0.00    +0.000 C 
ATOM     31  O   UNK A   4     -10.958  -2.768  12.189  0.00  0.00    +0.000 OA
ENDBRANCH  29  30
BRANCH  29  32
ATOM     32  C   UNK A   4      -8.785  -1.032  10.338  0.00  0.00    +0.000 C 
BRANCH  32  33
ATOM     33  C   UNK A   4      -8.207  -0.670  11.690  0.00  0.00    +0.000 A 
ATOM     34  C   UNK A   4      -7.605  -1.444  12.571  0.00  0.00    +0.000 A 
ATOM     35  N   UNK A   4      -7.274  -0.737  13.648  0.00  0.00    +0.000 N 
ATOM     36  C   UNK A   4      -7.683   0.522  13.456  0.00  0.00    +0.000 A 
ATOM     37  N   UNK A   4      -8.295   0.559  12.288  0.00  0.00    +0.000 NA
BRANCH  35  38
ATOM     38 ZN   UNK A   4      -6.628  -1.601  15.390  0.00  0.00    +0.000 Zn
BRANCH  38  39
ATOM     39  N   UNK A   4      -5.905  -3.458  14.648  0.00  0.00    +0.000 N 
ATOM     40  C   UNK A   4      -6.664  -4.594  14.664  0.00  0.00    +0.000 A 
ATOM     41  C   UNK A   4      -5.949  -5.635  14.247  0.00  0.00    +0.000 A 
ATOM     42  N   UNK A   4      -4.715  -5.131  13.955  0.00  0.00    +0.000 NA
ATOM     43  C   UNK A   4      -4.702  -3.878  14.241  0.00  0.00    +0.000 A 
BRANCH  41  44
ATOM     44  C   UNK A   4      -6.236  -7.095  14.004  0.00  0.00    +0.000 C 
BRANCH  44  45
ATOM     45  C   UNK A   4      -6.838  -7.268  12.658  0.00  0.00    +0.000 C 
BRANCH  45  46
ATOM     46  N   UNK A   4      -8.035  -6.470  12.330  0.00  0.00    +0.000 NA
ATOM     47  H   UNK A   1      -8.882  -6.712  12.882  0.00  0.00    +0.000 HD
ENDBRANCH  45  46
BRANCH  45  48
ATOM     48  C   UNK A   4      -7.203  -8.752  12.520  0.00  0.00    +0.000 C 
ATOM     49  O   UNK A   1      -8.219  -9.081  13.084  0.00  0.00    +0.000 OA
ENDBRANCH  45  48
ENDBRANCH  44  45
ENDBRANCH  41  44
ENDBRANCH  38  39
ENDBRANCH  35  38
ENDBRANCH  32  33
ENDBRANCH  29  32
ENDBRANCH  26  29
ENDBRANCH   1  25
BRANCH   1  50
ATOM     50  CB  PHE A   3     -14.049   0.823  11.356  0.00  0.00    +0.000 C 
BRANCH  50  51
ATOM     51  CG  PHE A   3     -14.760   0.289  10.139  0.00  0.00    +0.000 A 
ATOM     52  CD2 PHE A   3     -15.890   0.930   9.639  0.00  0.00    +0.000 A 
ATOM     53  CE2 PHE A   3     -16.517   0.399   8.508  0.00  0.00    +0.000 A 
ATOM     54  CZ  PHE A   3     -16.050  -0.794   7.918  0.00  0.00    +0.000 A 
ATOM     55  CE1 PHE A   3     -14.914  -1.376   8.408  0.00  0.00    +0.000 A 
ATOM     56  CD1 PHE A   3     -14.292  -0.869   9.536  0.00  0.00    +0.000 A 
ENDBRANCH  50  51
ENDBRANCH   1  50
TORSDOF 23
REMARK  Name = ../refined-set-2016/1avn/1avn_pocket.pdb
REMARK  80 active torsions:
REMARK  status: ('A' for Active; 'I' for Inactive)
REMARK    1  A    between atoms: _1  and  _3
REMARK    2  A    between atoms: _3  and  _4
REMARK    3  A    between atoms: _3  and  _6
REMARK    4  A    between atoms: _6  and  _7
REMARK    5  A    between atoms: _17  and  _19
REMARK    6  A    between atoms: _19  and  _20
REMARK    7  A    between atoms: _19  and  _22
REMARK    8  A    between atoms: _22  and  _23
REMARK    9  A    between atoms: _26  and  _28
REMARK   10  A    between atoms: _28  and  _29
REMARK   11  A    between atoms: _28  and  _31
REMARK   12  A    between atoms: _31  and  _32
REMARK   13  A    between atoms: _37  and  _39
REMARK   14  A    between atoms: _39  and  _40
REMARK   15  A    between atoms: _42  and  _44
REMARK   16  A    between atoms: _44  and  _45
REMARK   17  A    between atoms: _44  and  _47
REMARK   18  A    between atoms: _47  and  _48
REMARK   19  A    between atoms: _53  and  _55
REMARK   20  A    between atoms: _55  and  _56
REMARK   21  A    between atoms: _59  and  _61
REMARK   22  A    between atoms: _61  and  _62
REMARK   23  A    between atoms: _61  and  _64
REMARK   24  A    between atoms: _64  and  _65
REMARK   25  A    between atoms: _71  and  _73
REMARK   26  A    between atoms: _73  and  _74
REMARK   27  A    between atoms: _73  and  _76
REMARK   28  A    between atoms: _76  and  _77
REMARK   29  A    between atoms: _82  and  _84
REMARK   30  A    between atoms: _84  and  _85
REMARK   31  A    between atoms: _84  and  _87
REMARK   32  A    between atoms: _87  and  _88
REMARK   33  A    between atoms: _88  and  _89
REMARK   34  A    between atoms: _92  and  _94
REMARK   35  A    between atoms: _94  and  _95
REMARK   36  A    between atoms: _94  and  _97
REMARK   37  A    between atoms: _97  and  _98
REMARK   38  A    between atoms: _101  and  _103
REMARK   39  A    between atoms: _103  and  _104
REMARK   40  A    between atoms: _103  and  _106
REMARK   41  A    between atoms: _106  and  _107
REMARK   42  A    between atoms: _107  and  _108
REMARK   43  A    between atoms: _113  and  _115
REMARK   44  A    between atoms: _115  and  _116
REMARK   45  A    between atoms: _115  and  _118
REMARK   46  A    between atoms: _118  and  _119
REMARK   47  A    between atoms: _125  and  _127
REMARK   48  A    between atoms: _127  and  _128
REMARK   49  A    between atoms: _127  and  _130
REMARK   50  A    between atoms: _130  and  _131
REMARK   51  A    between atoms: _135  and  ZN_212
REMARK   52  A    between atoms: _136  and  _138
REMARK   53  A    between atoms: _138  and  _139
REMARK   54  A    between atoms: _138  and  _141
REMARK   55  A    between atoms: _141  and  _142
REMARK   56  A    between atoms: _146  and  ZN_212
REMARK   57  A    between atoms: _147  and  _149
REMARK   58  A    between atoms: _149  and  _150
REMARK   59  A    between atoms: _149  and  _152
REMARK   60  A    between atoms: _155  and  _157
REMARK   61  A    between atoms: _157  and  _158
REMARK   62  A    between atoms: _157  and  _160
REMARK   63  A    between atoms: _160  and  _161
REMARK   64  A    between atoms: _167  and  _169
REMARK   65  A    between atoms: _169  and  _170
REMARK   66  A    between atoms: _169  and  _172
REMARK   67  A    between atoms: _172  and  _173
REMARK   68  A    between atoms: _173  and  _174
REMARK   69  A    between atoms: _174  and  _175
REMARK   70  A    between atoms: _175  and  _176
REMARK   71  A    between atoms: _180  and  _182
REMARK   72  A    between atoms: _182  and  _183
REMARK   73  A    between atoms: _182  and  _185
REMARK   74  A    between atoms: _185  and  _186
REMARK   75  A    between atoms: _189  and  _191
REMARK   76  A    between atoms: _191  and  _192
REMARK   77  A    between atoms: _191  and  _194
REMARK   78  A    between atoms: _194  and  _195
REMARK   79  A    between atoms: _199  and  _200
REMARK   80  A    between atoms: _206  and  _207
REMARK                            x       y       z     vdW  Elec       q    Type
REMARK                         _______ _______ _______ _____ _____    ______ ____
ROOT
ATOM      1  CA  VAL A   1     -11.724   4.739  16.016  0.00  0.00    +0.133 C 
ENDROOT
BRANCH   1   2
ATOM      2  CB  VAL A   1     -10.324   4.909  15.336  0.00  0.00    +0.023 C 
ATOM      3  CG2 VAL A   1      -9.346   5.865  15.999  0.00  0.00    +0.002 C 
ATOM      4  CG1 VAL A   1      -9.615   3.511  15.304  0.00  0.00    +0.002 C 
ENDBRANCH   1   2
BRANCH   1   5
ATOM      5  N   VAL A   1     -12.543   3.688  15.430  0.00  0.00    -0.239 NA
ATOM      6  H   VAL A   1     -12.505   3.622  14.393  0.00  0.00    +0.142 HD
ENDBRANCH   1   5
BRANCH   1   7
ATOM      7  C   VAL A   1     -12.432   6.092  16.023  0.00  0.00    +0.224 C 
ATOM      8  O   VAL A   1     -12.841   6.521  14.951  0.00  0.00    -0.287 OA
ENDBRANCH   1   7
TORSDOF 3
REMARK  Name = ../refined-set-2016/1avn/1avn_pocket.pdb
REMARK  80 active torsions:
REMARK  status: ('A' for Active; 'I' for Inactive)
REMARK    1  A    between atoms: _1  and  _3
REMARK    2  A    between atoms: _3  and  _4
REMARK    3  A    between atoms: _3  and  _6
REMARK    4  A    between atoms: _6  and  _7
REMARK    5  A    between atoms: _17  and  _19
REMARK    6  A    between atoms: _19  and  _20
REMARK    7  A    between atoms: _19  and  _22
REMARK    8  A    between atoms: _22  and  _23
REMARK    9  A    between atoms: _26  and  _28
REMARK   10  A    between atoms: _28  and  _29
REMARK   11  A    between atoms: _28  and  _31
REMARK   12  A    between atoms: _31  and  _32
REMARK   13  A    between atoms: _37  and  _39
REMARK   14  A    between atoms: _39  and  _40
REMARK   15  A    between atoms: _42  and  _44
REMARK   16  A    between atoms: _44  and  _45
REMARK   17  A    between atoms: _44  and  _47
REMARK   18  A    between atoms: _47  and  _48
REMARK   19  A    between atoms: _53  and  _55
REMARK   20  A    between atoms: _55  and  _56
REMARK   21  A    between atoms: _59  and  _61
REMARK   22  A    between atoms: _61  and  _62
REMARK   23  A    between atoms: _61  and  _64
REMARK   24  A    between atoms: _64  and  _65
REMARK   25  A    between atoms: _71  and  _73
REMARK   26  A    between atoms: _73  and  _74
REMARK   27  A    between atoms: _73  and  _76
REMARK   28  A    between atoms: _76  and  _77
REMARK   29  A    between atoms: _82  and  _84
REMARK   30  A    between atoms: _84  and  _85
REMARK   31  A    between atoms: _84  and  _87
REMARK   32  A    between atoms: _87  and  _88
REMARK   33  A    between atoms: _88  and  _89
REMARK   34  A    between atoms: _92  and  _94
REMARK   35  A    between atoms: _94  and  _95
REMARK   36  A    between atoms: _94  and  _97
REMARK   37  A    between atoms: _97  and  _98
REMARK   38  A    between atoms: _101  and  _103
REMARK   39  A    between atoms: _103  and  _104
REMARK   40  A    between atoms: _103  and  _106
REMARK   41  A    between atoms: _106  and  _107
REMARK   42  A    between atoms: _107  and  _108
REMARK   43  A    between atoms: _113  and  _115
REMARK   44  A    between atoms: _115  and  _116
REMARK   45  A    between atoms: _115  and  _118
REMARK   46  A    between atoms: _118  and  _119
REMARK   47  A    between atoms: _125  and  _127
REMARK   48  A    between atoms: _127  and  _128
REMARK   49  A    between atoms: _127  and  _130
REMARK   50  A    between atoms: _130  and  _131
REMARK   51  A    between atoms: _135  and  ZN_212
REMARK   52  A    between atoms: _136  and  _138
REMARK   53  A    between atoms: _138  and  _139
REMARK   54  A    between atoms: _138  and  _141
REMARK   55  A    between atoms: _141  and  _142
REMARK   56  A    between atoms: _146  and  ZN_212
REMARK   57  A    between atoms: _147  and  _149
REMARK   58  A    between atoms: _149  and  _150
REMARK   59  A    between atoms: _149  and  _152
REMARK   60  A    between atoms: _155  and  _157
REMARK   61  A    between atoms: _157  and  _158
REMARK   62  A    between atoms: _157  and  _160
REMARK   63  A    between atoms: _160  and  _161
REMARK   64  A    between atoms: _167  and  _169
REMARK   65  A    between atoms: _169  and  _170
REMARK   66  A    between atoms: _169  and  _172
REMARK   67  A    between atoms: _172  and  _173
REMARK   68  A    between atoms: _173  and  _174
REMARK   69  A    between atoms: _174  and  _175
REMARK   70  A    between atoms: _175  and  _176
REMARK   71  A    between atoms: _180  and  _182
REMARK   72  A    between atoms: _182  and  _183
REMARK   73  A    between atoms: _182  and  _185
REMARK   74  A    between atoms: _185  and  _186
REMARK   75  A    between atoms: _189  and  _191
REMARK   76  A    between atoms: _191  and  _192
REMARK   77  A    between atoms: _191  and  _194
REMARK   78  A    between atoms: _194  and  _195
REMARK   79  A    between atoms: _199  and  _200
REMARK   80  A    between atoms: _206  and  _207
REMARK                            x       y       z     vdW  Elec       q    Type
REMARK                         _______ _______ _______ _____ _____    ______ ____
ROOT
ATOM      1  CB  PHE A   1      -7.812  12.945  14.077  0.00  0.00    +0.051 C 
ENDROOT
BRANCH   1   2
ATOM      2  CG  PHE A   1      -7.167  11.637  14.393  0.00  0.00    -0.020 A 
ATOM      3  CD2 PHE A   1      -7.829  10.660  15.077  0.00  0.00    -0.004 A 
ATOM      4  CE2 PHE A   1      -7.226   9.455  15.389  0.00  0.00    -0.000 A 
ATOM      5  CZ  PHE A   1      -5.891   9.229  15.091  0.00  0.00    -0.000 A 
ATOM      6  CE1 PHE A   1      -5.196  10.211  14.416  0.00  0.00    -0.000 A 
ATOM      7  CD1 PHE A   1      -5.837  11.396  14.080  0.00  0.00    -0.004 A 
ENDBRANCH   1   2
BRANCH   1   8
ATOM      8  CA  PHE A   1      -7.692  13.985  15.216  0.00  0.00    +0.137 C 
BRANCH   8   9
ATOM      9  N   PHE A   1      -8.295  15.225  14.785  0.00  0.00    -0.239 NA
ATOM     10  H   PHE A   1      -8.520  15.299  13.772  0.00  0.00    +0.142 HD
ENDBRANCH   8   9
BRANCH   8  11
ATOM     11  C   PHE A   1      -6.262  14.201  15.713  0.00  0.00    +0.224 C 
ATOM     12  O   PHE A   1      -5.840  13.642  16.690  0.00  0.00    -0.287 OA
ENDBRANCH   8  11
ENDBRANCH   1   8
TORSDOF 4
REMARK  Name = ../refined-set-2016/1avn/1avn_pocket.pdb
REMARK  80 active torsions:
REMARK  status: ('A' for Active; 'I' for Inactive)
REMARK    1  A    between atoms: _1  and  _3
REMARK    2  A    between atoms: _3  and  _4
REMARK    3  A    between atoms: _3  and  _6
REMARK    4  A    between atoms: _6  and  _7
REMARK    5  A    between atoms: _17  and  _19
REMARK    6  A    between atoms: _19  and  _20
REMARK    7  A    between atoms: _19  and  _22
REMARK    8  A    between atoms: _22  and  _23
REMARK    9  A    between atoms: _26  and  _28
REMARK   10  A    between atoms: _28  and  _29
REMARK   11  A    between atoms: _28  and  _31
REMARK   12  A    between atoms: _31  and  _32
REMARK   13  A    between atoms: _37  and  _39
REMARK   14  A    between atoms: _39  and  _40
REMARK   15  A    between atoms: _42  and  _44
REMARK   16  A    between atoms: _44  and  _45
REMARK   17  A    between atoms: _44  and  _47
REMARK   18  A    between atoms: _47  and  _48
REMARK   19  A    between atoms: _53  and  _55
REMARK   20  A    between atoms: _55  and  _56
REMARK   21  A    between atoms: _59  and  _61
REMARK   22  A    between atoms: _61  and  _62
REMARK   23  A    between atoms: _61  and  _64
REMARK   24  A    between atoms: _64  and  _65
REMARK   25  A    between atoms: _71  and  _73
REMARK   26  A    between atoms: _73  and  _74
REMARK   27  A    between atoms: _73  and  _76
REMARK   28  A    between atoms: _76  and  _77
REMARK   29  A    between atoms: _82  and  _84
REMARK   30  A    between atoms: _84  and  _85
REMARK   31  A    between atoms: _84  and  _87
REMARK   32  A    between atoms: _87  and  _88
REMARK   33  A    between atoms: _88  and  _89
REMARK   34  A    between atoms: _92  and  _94
REMARK   35  A    between atoms: _94  and  _95
REMARK   36  A    between atoms: _94  and  _97
REMARK   37  A    between atoms: _97  and  _98
REMARK   38  A    between atoms: _101  and  _103
REMARK   39  A    between atoms: _103  and  _104
REMARK   40  A    between atoms: _103  and  _106
REMARK   41  A    between atoms: _106  and  _107
REMARK   42  A    between atoms: _107  and  _108
REMARK   43  A    between atoms: _113  and  _115
REMARK   44  A    between atoms: _115  and  _116
REMARK   45  A    between atoms: _115  and  _118
REMARK   46  A    between atoms: _118  and  _119
REMARK   47  A    between atoms: _125  and  _127
REMARK   48  A    between atoms: _127  and  _128
REMARK   49  A    between atoms: _127  and  _130
REMARK   50  A    between atoms: _130  and  _131
REMARK   51  A    between atoms: _135  and  ZN_212
REMARK   52  A    between atoms: _136  and  _138
REMARK   53  A    between atoms: _138  and  _139
REMARK   54  A    between atoms: _138  and  _141
REMARK   55  A    between atoms: _141  and  _142
REMARK   56  A    between atoms: _146  and  ZN_212
REMARK   57  A    between atoms: _147  and  _149
REMARK   58  A    between atoms: _149  and  _150
REMARK   59  A    between atoms: _149  and  _152
REMARK   60  A    between atoms: _155  and  _157
REMARK   61  A    between atoms: _157  and  _158
REMARK   62  A    between atoms: _157  and  _160
REMARK   63  A    between atoms: _160  and  _161
REMARK   64  A    between atoms: _167  and  _169
REMARK   65  A    between atoms: _169  and  _170
REMARK   66  A    between atoms: _169  and  _172
REMARK   67  A    between atoms: _172  and  _173
REMARK   68  A    between atoms: _173  and  _174
REMARK   69  A    between atoms: _174  and  _175
REMARK   70  A    between atoms: _175  and  _176
REMARK   71  A    between atoms: _180  and  _182
REMARK   72  A    between atoms: _182  and  _183
REMARK   73  A    between atoms: _182  and  _185
REMARK   74  A    between atoms: _185  and  _186
REMARK   75  A    between atoms: _189  and  _191
REMARK   76  A    between atoms: _191  and  _192
REMARK   77  A    between atoms: _191  and  _194
REMARK   78  A    between atoms: _194  and  _195
REMARK   79  A    between atoms: _199  and  _200
REMARK   80  A    between atoms: _206  and  _207
REMARK                            x       y       z     vdW  Elec       q    Type
REMARK                         _______ _______ _______ _____ _____    ______ ____
ROOT
ATOM      1  CG  LYS A   1       1.635  -0.035   1.139  0.00  0.00    -0.000 C 
ENDROOT
BRANCH   1   2
ATOM      2  CB  LYS A   1       1.226  -1.285   0.331  0.00  0.00    +0.025 C 
BRANCH   2   3
ATOM      3  CA  LYS A   1      -0.174  -1.183  -0.277  0.00  0.00    +0.133 C 
BRANCH   3   4
ATOM      4  N   LYS A   1      -0.481  -2.407  -1.027  0.00  0.00    -0.239 NA
ATOM      5  H   LYS A   1       0.205  -3.188  -0.995  0.00  0.00    +0.142 HD
ENDBRANCH   3   4
BRANCH   3   6
ATOM      6  C   LYS A   1      -0.203   0.094  -1.077  0.00  0.00    +0.224 C 
ATOM      7  O   LYS A   1       0.467   0.225  -2.109  0.00  0.00    -0.287 OA
ENDBRANCH   3   6
ENDBRANCH   2   3
ENDBRANCH   1   2
BRANCH   1   8
ATOM      8  CD  LYS A   1       3.157   0.080   0.981  0.00  0.00    -0.024 C 
BRANCH   8   9
ATOM      9  CE  LYS A   1       3.875  -0.492   2.170  0.00  0.00    -0.086 C 
BRANCH   9  10
ATOM     10  NZ  LYS A   1       3.836   0.536   3.280  0.00  0.00    +0.380 N 
ATOM     11  HZ1 LYS A   1       4.328   0.161   4.116  0.00  0.00    -0.089 HD
ATOM     12  HZ2 LYS A   1       2.847   0.744   3.524  0.00  0.00    -0.089 HD
ATOM     13  HZ3 LYS A   1       4.306   1.407   2.961  0.00  0.00    -0.089 HD
ENDBRANCH   9  10
ENDBRANCH   8   9
ENDBRANCH   1   8
TORSDOF 7
REMARK  Name = ../refined-set-2016/1avn/1avn_pocket.pdb
REMARK  80 active torsions:
REMARK  status: ('A' for Active; 'I' for Inactive)
REMARK    1  A    between atoms: _1  and  _3
REMARK    2  A    between atoms: _3  and  _4
REMARK    3  A    between atoms: _3  and  _6
REMARK    4  A    between atoms: _6  and  _7
REMARK    5  A    between atoms: _17  and  _19
REMARK    6  A    between atoms: _19  and  _20
REMARK    7  A    between atoms: _19  and  _22
REMARK    8  A    between atoms: _22  and  _23
REMARK    9  A    between atoms: _26  and  _28
REMARK   10  A    between atoms: _28  and  _29
REMARK   11  A    between atoms: _28  and  _31
REMARK   12  A    between atoms: _31  and  _32
REMARK   13  A    between atoms: _37  and  _39
REMARK   14  A    between atoms: _39  and  _40
REMARK   15  A    between atoms: _42  and  _44
REMARK   16  A    between atoms: _44  and  _45
REMARK   17  A    between atoms: _44  and  _47
REMARK   18  A    between atoms: _47  and  _48
REMARK   19  A    between atoms: _53  and  _55
REMARK   20  A    between atoms: _55  and  _56
REMARK   21  A    between atoms: _59  and  _61
REMARK   22  A    between atoms: _61  and  _62
REMARK   23  A    between atoms: _61  and  _64
REMARK   24  A    between atoms: _64  and  _65
REMARK   25  A    between atoms: _71  and  _73
REMARK   26  A    between atoms: _73  and  _74
REMARK   27  A    between atoms: _73  and  _76
REMARK   28  A    between atoms: _76  and  _77
REMARK   29  A    between atoms: _82  and  _84
REMARK   30  A    between atoms: _84  and  _85
REMARK   31  A    between atoms: _84  and  _87
REMARK   32  A    between atoms: _87  and  _88
REMARK   33  A    between atoms: _88  and  _89
REMARK   34  A    between atoms: _92  and  _94
REMARK   35  A    between atoms: _94  and  _95
REMARK   36  A    between atoms: _94  and  _97
REMARK   37  A    between atoms: _97  and  _98
REMARK   38  A    between atoms: _101  and  _103
REMARK   39  A    between atoms: _103  and  _104
REMARK   40  A    between atoms: _103  and  _106
REMARK   41  A    between atoms: _106  and  _107
REMARK   42  A    between atoms: _107  and  _108
REMARK   43  A    between atoms: _113  and  _115
REMARK   44  A    between atoms: _115  and  _116
REMARK   45  A    between atoms: _115  and  _118
REMARK   46  A    between atoms: _118  and  _119
REMARK   47  A    between atoms: _125  and  _127
REMARK   48  A    between atoms: _127  and  _128
REMARK   49  A    between atoms: _127  and  _130
REMARK   50  A    between atoms: _130  and  _131
REMARK   51  A    between atoms: _135  and  ZN_212
REMARK   52  A    between atoms: _136  and  _138
REMARK   53  A    between atoms: _138  and  _139
REMARK   54  A    between atoms: _138  and  _141
REMARK   55  A    between atoms: _141  and  _142
REMARK   56  A    between atoms: _146  and  ZN_212
REMARK   57  A    between atoms: _147  and  _149
REMARK   58  A    between atoms: _149  and  _150
REMARK   59  A    between atoms: _149  and  _152
REMARK   60  A    between atoms: _155  and  _157
REMARK   61  A    between atoms: _157  and  _158
REMARK   62  A    between atoms: _157  and  _160
REMARK   63  A    between atoms: _160  and  _161
REMARK   64  A    between atoms: _167  and  _169
REMARK   65  A    between atoms: _169  and  _170
REMARK   66  A    between atoms: _169  and  _172
REMARK   67  A    between atoms: _172  and  _173
REMARK   68  A    between atoms: _173  and  _174
REMARK   69  A    between atoms: _174  and  _175
REMARK   70  A    between atoms: _175  and  _176
REMARK   71  A    between atoms: _180  and  _182
REMARK   72  A    between atoms: _182  and  _183
REMARK   73  A    between atoms: _182  and  _185
REMARK   74  A    between atoms: _185  and  _186
REMARK   75  A    between atoms: _189  and  _191
REMARK   76  A    between atoms: _191  and  _192
REMARK   77  A    between atoms: _191  and  _194
REMARK   78  A    between atoms: _194  and  _195
REMARK   79  A    between atoms: _199  and  _200
REMARK   80  A    between atoms: _206  and  _207
REMARK                            x       y       z     vdW  Elec       q    Type
REMARK                         _______ _______ _______ _____ _____    ______ ____
ROOT
ATOM      1  CA  LEU A   1      -3.271   2.462  19.878  0.00  0.00    +0.133 C 
ENDROOT
BRANCH   1   2
ATOM      2  N   LEU A   1      -3.119   2.970  21.211  0.00  0.00    -0.239 NA
ATOM      3  H   LEU A   1      -2.582   3.851  21.342  0.00  0.00    +0.142 HD
ENDBRANCH   1   2
BRANCH   1   4
ATOM      4  C   LEU A   1      -2.367   1.163  19.895  0.00  0.00    +0.224 C 
ATOM      5  O   LEU A   1      -1.364   1.105  20.662  0.00  0.00    -0.287 OA
ENDBRANCH   1   4
BRANCH   1   6
ATOM      6  CB  LEU A   1      -2.748   3.425  18.845  0.00  0.00    +0.025 C 
BRANCH   6   7
ATOM      7  CG  LEU A   1      -3.577   4.714  18.734  0.00  0.00    +0.002 C 
ATOM      8  CD2 LEU A   1      -4.912   4.301  18.196  0.00  0.00    +0.000 C 
ATOM      9  CD1 LEU A   1      -2.874   5.684  17.796  0.00  0.00    +0.000 C 
ENDBRANCH   6   7
ENDBRANCH   1   6
TORSDOF 4
REMARK  Name = ../refined-set-2016/1avn/1avn_pocket.pdb
REMARK  80 active torsions:
REMARK  status: ('A' for Active; 'I' for Inactive)
REMARK    1  A    between atoms: _1  and  _3
REMARK    2  A    between atoms: _3  and  _4
REMARK    3  A    between atoms: _3  and  _6
REMARK    4  A    between atoms: _6  and  _7
REMARK    5  A    between atoms: _17  and  _19
REMARK    6  A    between atoms: _19  and  _20
REMARK    7  A    between atoms: _19  and  _22
REMARK    8  A    between atoms: _22  and  _23
REMARK    9  A    between atoms: _26  and  _28
REMARK   10  A    between atoms: _28  and  _29
REMARK   11  A    between atoms: _28  and  _31
REMARK   12  A    between atoms: _31  and  _32
REMARK   13  A    between atoms: _37  and  _39
REMARK   14  A    between atoms: _39  and  _40
REMARK   15  A    between atoms: _42  and  _44
REMARK   16  A    between atoms: _44  and  _45
REMARK   17  A    between atoms: _44  and  _47
REMARK   18  A    between atoms: _47  and  _48
REMARK   19  A    between atoms: _53  and  _55
REMARK   20  A    between atoms: _55  and  _56
REMARK   21  A    between atoms: _59  and  _61
REMARK   22  A    between atoms: _61  and  _62
REMARK   23  A    between atoms: _61  and  _64
REMARK   24  A    between atoms: _64  and  _65
REMARK   25  A    between atoms: _71  and  _73
REMARK   26  A    between atoms: _73  and  _74
REMARK   27  A    between atoms: _73  and  _76
REMARK   28  A    between atoms: _76  and  _77
REMARK   29  A    between atoms: _82  and  _84
REMARK   30  A    between atoms: _84  and  _85
REMARK   31  A    between atoms: _84  and  _87
REMARK   32  A    between atoms: _87  and  _88
REMARK   33  A    between atoms: _88  and  _89
REMARK   34  A    between atoms: _92  and  _94
REMARK   35  A    between atoms: _94  and  _95
REMARK   36  A    between atoms: _94  and  _97
REMARK   37  A    between atoms: _97  and  _98
REMARK   38  A    between atoms: _101  and  _103
REMARK   39  A    between atoms: _103  and  _104
REMARK   40  A    between atoms: _103  and  _106
REMARK   41  A    between atoms: _106  and  _107
REMARK   42  A    between atoms: _107  and  _108
REMARK   43  A    between atoms: _113  and  _115
REMARK   44  A    between atoms: _115  and  _116
REMARK   45  A    between atoms: _115  and  _118
REMARK   46  A    between atoms: _118  and  _119
REMARK   47  A    between atoms: _125  and  _127
REMARK   48  A    between atoms: _127  and  _128
REMARK   49  A    between atoms: _127  and  _130
REMARK   50  A    between atoms: _130  and  _131
REMARK   51  A    between atoms: _135  and  ZN_212
REMARK   52  A    between atoms: _136  and  _138
REMARK   53  A    between atoms: _138  and  _139
REMARK   54  A    between atoms: _138  and  _141
REMARK   55  A    between atoms: _141  and  _142
REMARK   56  A    between atoms: _146  and  ZN_212
REMARK   57  A    between atoms: _147  and  _149
REMARK   58  A    between atoms: _149  and  _150
REMARK   59  A    between atoms: _149  and  _152
REMARK   60  A    between atoms: _155  and  _157
REMARK   61  A    between atoms: _157  and  _158
REMARK   62  A    between atoms: _157  and  _160
REMARK   63  A    between atoms: _160  and  _161
REMARK   64  A    between atoms: _167  and  _169
REMARK   65  A    between atoms: _169  and  _170
REMARK   66  A    between atoms: _169  and  _172
REMARK   67  A    between atoms: _172  and  _173
REMARK   68  A    between atoms: _173  and  _174
REMARK   69  A    between atoms: _174  and  _175
REMARK   70  A    between atoms: _175  and  _176
REMARK   71  A    between atoms: _180  and  _182
REMARK   72  A    between atoms: _182  and  _183
REMARK   73  A    between atoms: _182  and  _185
REMARK   74  A    between atoms: _185  and  _186
REMARK   75  A    between atoms: _189  and  _191
REMARK   76  A    between atoms: _191  and  _192
REMARK   77  A    between atoms: _191  and  _194
REMARK   78  A    between atoms: _194  and  _195
REMARK   79  A    between atoms: _199  and  _200
REMARK   80  A    between atoms: _206  and  _207
REMARK                            x       y       z     vdW  Elec       q    Type
REMARK                         _______ _______ _______ _____ _____    ______ ____
ROOT
ATOM      1  C   THR A   1       0.825   1.235  16.315  0.00  0.00    +0.244 C 
ATOM      2  O   THR A   1       0.331   2.196  16.945  0.00  0.00    -0.273 OA
ATOM      3  N   PRO A   2       2.103   1.350  15.912  0.00  0.00    -0.272 N 
ATOM      4  CA  PRO A   2       2.873   2.597  16.099  0.00  0.00    +0.152 C 
ATOM      5  CB  PRO A   2       4.155   2.250  15.352  0.00  0.00    +0.031 C 
ATOM      6  CG  PRO A   2       4.293   0.773  15.664  0.00  0.00    +0.024 C 
ATOM      7  CD  PRO A   2       2.912   0.307  15.266  0.00  0.00    +0.094 C 
ENDROOT
BRANCH   4   8
ATOM      8  C   PRO A   2       2.067   3.732  15.481  0.00  0.00    +0.244 C 
ATOM      9  N   PRO A   3       2.074   4.940  16.043  0.00  0.00    -0.277 N 
ATOM     10  CA  PRO A   3       2.893   5.272  17.198  0.00  0.00    +0.108 C 
ATOM     11  CB  PRO A   3       3.065   6.818  17.021  0.00  0.00    +0.024 C 
ATOM     12  CG  PRO A   3       1.687   7.182  16.599  0.00  0.00    +0.023 C 
ATOM     13  CD  PRO A   3       1.350   6.124  15.535  0.00  0.00    +0.094 C 
ATOM     14  O   PRO A   2       1.397   3.577  14.443  0.00  0.00    -0.273 OA
BRANCH  10  15
ATOM     15  C   PRO A   3       2.539   4.838  18.619  0.00  0.00    +0.202 C 
ATOM     16  O   PRO A   3       3.224   5.400  19.518  0.00  0.00    -0.219 OA
ENDBRANCH  10  15
ENDBRANCH   4   8
BRANCH   1  17
ATOM     17  CA  THR A   1       0.080  -0.072  16.024  0.00  0.00    +0.172 C 
BRANCH  17  18
ATOM     18  N   THR A   1      -0.918  -0.099  17.084  0.00  0.00    -0.236 NA
ATOM     19  H   THR A   1      -1.546   0.721  17.204  0.00  0.00    +0.142 HD
ENDBRANCH  17  18
BRANCH  17  20
ATOM     20  CB  THR A   1      -0.477  -0.055  14.573  0.00  0.00    +0.135 C 
ATOM     21  CG2 THR A   1      -1.406  -1.182  14.233  0.00  0.00    +0.034 C 
BRANCH  20  22
ATOM     22  OG1 THR A   1      -1.257   1.128  14.602  0.00  0.00    -0.383 OA
ATOM     23  HG1 THR A   1      -0.675   1.901  14.813  0.00  0.00    +0.210 HD
ENDBRANCH  20  22
ENDBRANCH  17  20
ENDBRANCH   1  17
TORSDOF 6
REMARK  Name = ../refined-set-2016/1avn/1avn_pocket.pdb
REMARK  80 active torsions:
REMARK  status: ('A' for Active; 'I' for Inactive)
REMARK    1  A    between atoms: _1  and  _3
REMARK    2  A    between atoms: _3  and  _4
REMARK    3  A    between atoms: _3  and  _6
REMARK    4  A    between atoms: _6  and  _7
REMARK    5  A    between atoms: _17  and  _19
REMARK    6  A    between atoms: _19  and  _20
REMARK    7  A    between atoms: _19  and  _22
REMARK    8  A    between atoms: _22  and  _23
REMARK    9  A    between atoms: _26  and  _28
REMARK   10  A    between atoms: _28  and  _29
REMARK   11  A    between atoms: _28  and  _31
REMARK   12  A    between atoms: _31  and  _32
REMARK   13  A    between atoms: _37  and  _39
REMARK   14  A    between atoms: _39  and  _40
REMARK   15  A    between atoms: _42  and  _44
REMARK   16  A    between atoms: _44  and  _45
REMARK   17  A    between atoms: _44  and  _47
REMARK   18  A    between atoms: _47  and  _48
REMARK   19  A    between atoms: _53  and  _55
REMARK   20  A    between atoms: _55  and  _56
REMARK   21  A    between atoms: _59  and  _61
REMARK   22  A    between atoms: _61  and  _62
REMARK   23  A    between atoms: _61  and  _64
REMARK   24  A    between atoms: _64  and  _65
REMARK   25  A    between atoms: _71  and  _73
REMARK   26  A    between atoms: _73  and  _74
REMARK   27  A    between atoms: _73  and  _76
REMARK   28  A    between atoms: _76  and  _77
REMARK   29  A    between atoms: _82  and  _84
REMARK   30  A    between atoms: _84  and  _85
REMARK   31  A    between atoms: _84  and  _87
REMARK   32  A    between atoms: _87  and  _88
REMARK   33  A    between atoms: _88  and  _89
REMARK   34  A    between atoms: _92  and  _94
REMARK   35  A    between atoms: _94  and  _95
REMARK   36  A    between atoms: _94  and  _97
REMARK   37  A    between atoms: _97  and  _98
REMARK   38  A    between atoms: _101  and  _103
REMARK   39  A    between atoms: _103  and  _104
REMARK   40  A    between atoms: _103  and  _106
REMARK   41  A    between atoms: _106  and  _107
REMARK   42  A    between atoms: _107  and  _108
REMARK   43  A    between atoms: _113  and  _115
REMARK   44  A    between atoms: _115  and  _116
REMARK   45  A    between atoms: _115  and  _118
REMARK   46  A    between atoms: _118  and  _119
REMARK   47  A    between atoms: _125  and  _127
REMARK   48  A    between atoms: _127  and  _128
REMARK   49  A    between atoms: _127  and  _130
REMARK   50  A    between atoms: _130  and  _131
REMARK   51  A    between atoms: _135  and  ZN_212
REMARK   52  A    between atoms: _136  and  _138
REMARK   53  A    between atoms: _138  and  _139
REMARK   54  A    between atoms: _138  and  _141
REMARK   55  A    between atoms: _141  and  _142
REMARK   56  A    between atoms: _146  and  ZN_212
REMARK   57  A    between atoms: _147  and  _149
REMARK   58  A    between atoms: _149  and  _150
REMARK   59  A    between atoms: _149  and  _152
REMARK   60  A    between atoms: _155  and  _157
REMARK   61  A    between atoms: _157  and  _158
REMARK   62  A    between atoms: _157  and  _160
REMARK   63  A    between atoms: _160  and  _161
REMARK   64  A    between atoms: _167  and  _169
REMARK   65  A    between atoms: _169  and  _170
REMARK   66  A    between atoms: _169  and  _172
REMARK   67  A    between atoms: _172  and  _173
REMARK   68  A    between atoms: _173  and  _174
REMARK   69  A    between atoms: _174  and  _175
REMARK   70  A    between atoms: _175  and  _176
REMARK   71  A    between atoms: _180  and  _182
REMARK   72  A    between atoms: _182  and  _183
REMARK   73  A    between atoms: _182  and  _185
REMARK   74  A    between atoms: _185  and  _186
REMARK   75  A    between atoms: _189  and  _191
REMARK   76  A    between atoms: _191  and  _192
REMARK   77  A    between atoms: _191  and  _194
REMARK   78  A    between atoms: _194  and  _195
REMARK   79  A    between atoms: _199  and  _200
REMARK   80  A    between atoms: _206  and  _207
REMARK                            x       y       z     vdW  Elec       q    Type
REMARK                         _______ _______ _______ _____ _____    ______ ____
ROOT
ATOM      1  O   HOH     1      -6.762   5.973   6.741  0.00  0.00    +0.000 OA
ENDROOT
TORSDOF 0
REMARK  Name = ../refined-set-2016/1avn/1avn_pocket.pdb
REMARK  80 active torsions:
REMARK  status: ('A' for Active; 'I' for Inactive)
REMARK    1  A    between atoms: _1  and  _3
REMARK    2  A    between atoms: _3  and  _4
REMARK    3  A    between atoms: _3  and  _6
REMARK    4  A    between atoms: _6  and  _7
REMARK    5  A    between atoms: _17  and  _19
REMARK    6  A    between atoms: _19  and  _20
REMARK    7  A    between atoms: _19  and  _22
REMARK    8  A    between atoms: _22  and  _23
REMARK    9  A    between atoms: _26  and  _28
REMARK   10  A    between atoms: _28  and  _29
REMARK   11  A    between atoms: _28  and  _31
REMARK   12  A    between atoms: _31  and  _32
REMARK   13  A    between atoms: _37  and  _39
REMARK   14  A    between atoms: _39  and  _40
REMARK   15  A    between atoms: _42  and  _44
REMARK   16  A    between atoms: _44  and  _45
REMARK   17  A    between atoms: _44  and  _47
REMARK   18  A    between atoms: _47  and  _48
REMARK   19  A    between atoms: _53  and  _55
REMARK   20  A    between atoms: _55  and  _56
REMARK   21  A    between atoms: _59  and  _61
REMARK   22  A    between atoms: _61  and  _62
REMARK   23  A    between atoms: _61  and  _64
REMARK   24  A    between atoms: _64  and  _65
REMARK   25  A    between atoms: _71  and  _73
REMARK   26  A    between atoms: _73  and  _74
REMARK   27  A    between atoms: _73  and  _76
REMARK   28  A    between atoms: _76  and  _77
REMARK   29  A    between atoms: _82  and  _84
REMARK   30  A    between atoms: _84  and  _85
REMARK   31  A    between atoms: _84  and  _87
REMARK   32  A    between atoms: _87  and  _88
REMARK   33  A    between atoms: _88  and  _89
REMARK   34  A    between atoms: _92  and  _94
REMARK   35  A    between atoms: _94  and  _95
REMARK   36  A    between atoms: _94  and  _97
REMARK   37  A    between atoms: _97  and  _98
REMARK   38  A    between atoms: _101  and  _103
REMARK   39  A    between atoms: _103  and  _104
REMARK   40  A    between atoms: _103  and  _106
REMARK   41  A    between atoms: _106  and  _107
REMARK   42  A    between atoms: _107  and  _108
REMARK   43  A    between atoms: _113  and  _115
REMARK   44  A    between atoms: _115  and  _116
REMARK   45  A    between atoms: _115  and  _118
REMARK   46  A    between atoms: _118  and  _119
REMARK   47  A    between atoms: _125  and  _127
REMARK   48  A    between atoms: _127  and  _128
REMARK   49  A    between atoms: _127  and  _130
REMARK   50  A    between atoms: _130  and  _131
REMARK   51  A    between atoms: _135  and  ZN_212
REMARK   52  A    between atoms: _136  and  _138
REMARK   53  A    between atoms: _138  and  _139
REMARK   54  A    between atoms: _138  and  _141
REMARK   55  A    between atoms: _141  and  _142
REMARK   56  A    between atoms: _146  and  ZN_212
REMARK   57  A    between atoms: _147  and  _149
REMARK   58  A    between atoms: _149  and  _150
REMARK   59  A    between atoms: _149  and  _152
REMARK   60  A    between atoms: _155  and  _157
REMARK   61  A    between atoms: _157  and  _158
REMARK   62  A    between atoms: _157  and  _160
REMARK   63  A    between atoms: _160  and  _161
REMARK   64  A    between atoms: _167  and  _169
REMARK   65  A    between atoms: _169  and  _170
REMARK   66  A    between atoms: _169  and  _172
REMARK   67  A    between atoms: _172  and  _173
REMARK   68  A    between atoms: _173  and  _174
REMARK   69  A    between atoms: _174  and  _175
REMARK   70  A    between atoms: _175  and  _176
REMARK   71  A    between atoms: _180  and  _182
REMARK   72  A    between atoms: _182  and  _183
REMARK   73  A    between atoms: _182  and  _185
REMARK   74  A    between atoms: _185  and  _186
REMARK   75  A    between atoms: _189  and  _191
REMARK   76  A    between atoms: _191  and  _192
REMARK   77  A    between atoms: _191  and  _194
REMARK   78  A    between atoms: _194  and  _195
REMARK   79  A    between atoms: _199  and  _200
REMARK   80  A    between atoms: _206  and  _207
REMARK                            x       y       z     vdW  Elec       q    Type
REMARK                         _______ _______ _______ _____ _____    ______ ____
ROOT
ATOM      1  O   HOH     1      -2.390  -3.258  11.705  0.00  0.00    +0.000 OA
ENDROOT
TORSDOF 0
REMARK  Name = ../refined-set-2016/1avn/1avn_pocket.pdb
REMARK  80 active torsions:
REMARK  status: ('A' for Active; 'I' for Inactive)
REMARK    1  A    between atoms: _1  and  _3
REMARK    2  A    between atoms: _3  and  _4
REMARK    3  A    between atoms: _3  and  _6
REMARK    4  A    between atoms: _6  and  _7
REMARK    5  A    between atoms: _17  and  _19
REMARK    6  A    between atoms: _19  and  _20
REMARK    7  A    between atoms: _19  and  _22
REMARK    8  A    between atoms: _22  and  _23
REMARK    9  A    between atoms: _26  and  _28
REMARK   10  A    between atoms: _28  and  _29
REMARK   11  A    between atoms: _28  and  _31
REMARK   12  A    between atoms: _31  and  _32
REMARK   13  A    between atoms: _37  and  _39
REMARK   14  A    between atoms: _39  and  _40
REMARK   15  A    between atoms: _42  and  _44
REMARK   16  A    between atoms: _44  and  _45
REMARK   17  A    between atoms: _44  and  _47
REMARK   18  A    between atoms: _47  and  _48
REMARK   19  A    between atoms: _53  and  _55
REMARK   20  A    between atoms: _55  and  _56
REMARK   21  A    between atoms: _59  and  _61
REMARK   22  A    between atoms: _61  and  _62
REMARK   23  A    between atoms: _61  and  _64
REMARK   24  A    between atoms: _64  and  _65
REMARK   25  A    between atoms: _71  and  _73
REMARK   26  A    between atoms: _73  and  _74
REMARK   27  A    between atoms: _73  and  _76
REMARK   28  A    between atoms: _76  and  _77
REMARK   29  A    between atoms: _82  and  _84
REMARK   30  A    between atoms: _84  and  _85
REMARK   31  A    between atoms: _84  and  _87
REMARK   32  A    between atoms: _87  and  _88
REMARK   33  A    between atoms: _88  and  _89
REMARK   34  A    between atoms: _92  and  _94
REMARK   35  A    between atoms: _94  and  _95
REMARK   36  A    between atoms: _94  and  _97
REMARK   37  A    between atoms: _97  and  _98
REMARK   38  A    between atoms: _101  and  _103
REMARK   39  A    between atoms: _103  and  _104
REMARK   40  A    between atoms: _103  and  _106
REMARK   41  A    between atoms: _106  and  _107
REMARK   42  A    between atoms: _107  and  _108
REMARK   43  A    between atoms: _113  and  _115
REMARK   44  A    between atoms: _115  and  _116
REMARK   45  A    between atoms: _115  and  _118
REMARK   46  A    between atoms: _118  and  _119
REMARK   47  A    between atoms: _125  and  _127
REMARK   48  A    between atoms: _127  and  _128
REMARK   49  A    between atoms: _127  and  _130
REMARK   50  A    between atoms: _130  and  _131
REMARK   51  A    between atoms: _135  and  ZN_212
REMARK   52  A    between atoms: _136  and  _138
REMARK   53  A    between atoms: _138  and  _139
REMARK   54  A    between atoms: _138  and  _141
REMARK   55  A    between atoms: _141  and  _142
REMARK   56  A    between atoms: _146  and  ZN_212
REMARK   57  A    between atoms: _147  and  _149
REMARK   58  A    between atoms: _149  and  _150
REMARK   59  A    between atoms: _149  and  _152
REMARK   60  A    between atoms: _155  and  _157
REMARK   61  A    between atoms: _157  and  _158
REMARK   62  A    between atoms: _157  and  _160
REMARK   63  A    between atoms: _160  and  _161
REMARK   64  A    between atoms: _167  and  _169
REMARK   65  A    between atoms: _169  and  _170
REMARK   66  A    between atoms: _169  and  _172
REMARK   67  A    between atoms: _172  and  _173
REMARK   68  A    between atoms: _173  and  _174
REMARK   69  A    between atoms: _174  and  _175
REMARK   70  A    between atoms: _175  and  _176
REMARK   71  A    between atoms: _180  and  _182
REMARK   72  A    between atoms: _182  and  _183
REMARK   73  A    between atoms: _182  and  _185
REMARK   74  A    between atoms: _185  and  _186
REMARK   75  A    between atoms: _189  and  _191
REMARK   76  A    between atoms: _191  and  _192
REMARK   77  A    between atoms: _191  and  _194
REMARK   78  A    between atoms: _194  and  _195
REMARK   79  A    between atoms: _199  and  _200
REMARK   80  A    between atoms: _206  and  _207
REMARK                            x       y       z     vdW  Elec       q    Type
REMARK                         _______ _______ _______ _____ _____    ______ ____
ROOT
ATOM      1  O   HOH     1      -5.719   8.211   5.417  0.00  0.00    +0.000 OA
ENDROOT
TORSDOF 0
REMARK  Name = ../refined-set-2016/1avn/1avn_pocket.pdb
REMARK  80 active torsions:
REMARK  status: ('A' for Active; 'I' for Inactive)
REMARK    1  A    between atoms: _1  and  _3
REMARK    2  A    between atoms: _3  and  _4
REMARK    3  A    between atoms: _3  and  _6
REMARK    4  A    between atoms: _6  and  _7
REMARK    5  A    between atoms: _17  and  _19
REMARK    6  A    between atoms: _19  and  _20
REMARK    7  A    between atoms: _19  and  _22
REMARK    8  A    between atoms: _22  and  _23
REMARK    9  A    between atoms: _26  and  _28
REMARK   10  A    between atoms: _28  and  _29
REMARK   11  A    between atoms: _28  and  _31
REMARK   12  A    between atoms: _31  and  _32
REMARK   13  A    between atoms: _37  and  _39
REMARK   14  A    between atoms: _39  and  _40
REMARK   15  A    between atoms: _42  and  _44
REMARK   16  A    between atoms: _44  and  _45
REMARK   17  A    between atoms: _44  and  _47
REMARK   18  A    between atoms: _47  and  _48
REMARK   19  A    between atoms: _53  and  _55
REMARK   20  A    between atoms: _55  and  _56
REMARK   21  A    between atoms: _59  and  _61
REMARK   22  A    between atoms: _61  and  _62
REMARK   23  A    between atoms: _61  and  _64
REMARK   24  A    between atoms: _64  and  _65
REMARK   25  A    between atoms: _71  and  _73
REMARK   26  A    between atoms: _73  and  _74
REMARK   27  A    between atoms: _73  and  _76
REMARK   28  A    between atoms: _76  and  _77
REMARK   29  A    between atoms: _82  and  _84
REMARK   30  A    between atoms: _84  and  _85
REMARK   31  A    between atoms: _84  and  _87
REMARK   32  A    between atoms: _87  and  _88
REMARK   33  A    between atoms: _88  and  _89
REMARK   34  A    between atoms: _92  and  _94
REMARK   35  A    between atoms: _94  and  _95
REMARK   36  A    between atoms: _94  and  _97
REMARK   37  A    between atoms: _97  and  _98
REMARK   38  A    between atoms: _101  and  _103
REMARK   39  A    between atoms: _103  and  _104
REMARK   40  A    between atoms: _103  and  _106
REMARK   41  A    between atoms: _106  and  _107
REMARK   42  A    between atoms: _107  and  _108
REMARK   43  A    between atoms: _113  and  _115
REMARK   44  A    between atoms: _115  and  _116
REMARK   45  A    between atoms: _115  and  _118
REMARK   46  A    between atoms: _118  and  _119
REMARK   47  A    between atoms: _125  and  _127
REMARK   48  A    between atoms: _127  and  _128
REMARK   49  A    between atoms: _127  and  _130
REMARK   50  A    between atoms: _130  and  _131
REMARK   51  A    between atoms: _135  and  ZN_212
REMARK   52  A    between atoms: _136  and  _138
REMARK   53  A    between atoms: _138  and  _139
REMARK   54  A    between atoms: _138  and  _141
REMARK   55  A    between atoms: _141  and  _142
REMARK   56  A    between atoms: _146  and  ZN_212
REMARK   57  A    between atoms: _147  and  _149
REMARK   58  A    between atoms: _149  and  _150
REMARK   59  A    between atoms: _149  and  _152
REMARK   60  A    between atoms: _155  and  _157
REMARK   61  A    between atoms: _157  and  _158
REMARK   62  A    between atoms: _157  and  _160
REMARK   63  A    between atoms: _160  and  _161
REMARK   64  A    between atoms: _167  and  _169
REMARK   65  A    between atoms: _169  and  _170
REMARK   66  A    between atoms: _169  and  _172
REMARK   67  A    between atoms: _172  and  _173
REMARK   68  A    between atoms: _173  and  _174
REMARK   69  A    between atoms: _174  and  _175
REMARK   70  A    between atoms: _175  and  _176
REMARK   71  A    between atoms: _180  and  _182
REMARK   72  A    between atoms: _182  and  _183
REMARK   73  A    between atoms: _182  and  _185
REMARK   74  A    between atoms: _185  and  _186
REMARK   75  A    between atoms: _189  and  _191
REMARK   76  A    between atoms: _191  and  _192
REMARK   77  A    between atoms: _191  and  _194
REMARK   78  A    between atoms: _194  and  _195
REMARK   79  A    between atoms: _199  and  _200
REMARK   80  A    between atoms: _206  and  _207
REMARK                            x       y       z     vdW  Elec       q    Type
REMARK                         _______ _______ _______ _____ _____    ______ ____
ROOT
ATOM      1  O   HOH     1       1.885   0.381   7.449  0.00  0.00    +0.000 OA
ENDROOT
TORSDOF 0
REMARK  Name = ../refined-set-2016/1avn/1avn_pocket.pdb
REMARK  80 active torsions:
REMARK  status: ('A' for Active; 'I' for Inactive)
REMARK    1  A    between atoms: _1  and  _3
REMARK    2  A    between atoms: _3  and  _4
REMARK    3  A    between atoms: _3  and  _6
REMARK    4  A    between atoms: _6  and  _7
REMARK    5  A    between atoms: _17  and  _19
REMARK    6  A    between atoms: _19  and  _20
REMARK    7  A    between atoms: _19  and  _22
REMARK    8  A    between atoms: _22  and  _23
REMARK    9  A    between atoms: _26  and  _28
REMARK   10  A    between atoms: _28  and  _29
REMARK   11  A    between atoms: _28  and  _31
REMARK   12  A    between atoms: _31  and  _32
REMARK   13  A    between atoms: _37  and  _39
REMARK   14  A    between atoms: _39  and  _40
REMARK   15  A    between atoms: _42  and  _44
REMARK   16  A    between atoms: _44  and  _45
REMARK   17  A    between atoms: _44  and  _47
REMARK   18  A    between atoms: _47  and  _48
REMARK   19  A    between atoms: _53  and  _55
REMARK   20  A    between atoms: _55  and  _56
REMARK   21  A    between atoms: _59  and  _61
REMARK   22  A    between atoms: _61  and  _62
REMARK   23  A    between atoms: _61  and  _64
REMARK   24  A    between atoms: _64  and  _65
REMARK   25  A    between atoms: _71  and  _73
REMARK   26  A    between atoms: _73  and  _74
REMARK   27  A    between atoms: _73  and  _76
REMARK   28  A    between atoms: _76  and  _77
REMARK   29  A    between atoms: _82  and  _84
REMARK   30  A    between atoms: _84  and  _85
REMARK   31  A    between atoms: _84  and  _87
REMARK   32  A    between atoms: _87  and  _88
REMARK   33  A    between atoms: _88  and  _89
REMARK   34  A    between atoms: _92  and  _94
REMARK   35  A    between atoms: _94  and  _95
REMARK   36  A    between atoms: _94  and  _97
REMARK   37  A    between atoms: _97  and  _98
REMARK   38  A    between atoms: _101  and  _103
REMARK   39  A    between atoms: _103  and  _104
REMARK   40  A    between atoms: _103  and  _106
REMARK   41  A    between atoms: _106  and  _107
REMARK   42  A    between atoms: _107  and  _108
REMARK   43  A    between atoms: _113  and  _115
REMARK   44  A    between atoms: _115  and  _116
REMARK   45  A    between atoms: _115  and  _118
REMARK   46  A    between atoms: _118  and  _119
REMARK   47  A    between atoms: _125  and  _127
REMARK   48  A    between atoms: _127  and  _128
REMARK   49  A    between atoms: _127  and  _130
REMARK   50  A    between atoms: _130  and  _131
REMARK   51  A    between atoms: _135  and  ZN_212
REMARK   52  A    between atoms: _136  and  _138
REMARK   53  A    between atoms: _138  and  _139
REMARK   54  A    between atoms: _138  and  _141
REMARK   55  A    between atoms: _141  and  _142
REMARK   56  A    between atoms: _146  and  ZN_212
REMARK   57  A    between atoms: _147  and  _149
REMARK   58  A    between atoms: _149  and  _150
REMARK   59  A    between atoms: _149  and  _152
REMARK   60  A    between atoms: _155  and  _157
REMARK   61  A    between atoms: _157  and  _158
REMARK   62  A    between atoms: _157  and  _160
REMARK   63  A    between atoms: _160  and  _161
REMARK   64  A    between atoms: _167  and  _169
REMARK   65  A    between atoms: _169  and  _170
REMARK   66  A    between atoms: _169  and  _172
REMARK   67  A    between atoms: _172  and  _173
REMARK   68  A    between atoms: _173  and  _174
REMARK   69  A    between atoms: _174  and  _175
REMARK   70  A    between atoms: _175  and  _176
REMARK   71  A    between atoms: _180  and  _182
REMARK   72  A    between atoms: _182  and  _183
REMARK   73  A    between atoms: _182  and  _185
REMARK   74  A    between atoms: _185  and  _186
REMARK   75  A    between atoms: _189  and  _191
REMARK   76  A    between atoms: _191  and  _192
REMARK   77  A    between atoms: _191  and  _194
REMARK   78  A    between atoms: _194  and  _195
REMARK   79  A    between atoms: _199  and  _200
REMARK   80  A    between atoms: _206  and  _207
REMARK                            x       y       z     vdW  Elec       q    Type
REMARK                         _______ _______ _______ _____ _____    ______ ____
ROOT
ATOM      1  O   HOH     1      -4.027   1.253  14.106  0.00  0.00    +0.000 OA
ENDROOT
TORSDOF 0
REMARK  Name = ../refined-set-2016/1avn/1avn_pocket.pdb
REMARK  80 active torsions:
REMARK  status: ('A' for Active; 'I' for Inactive)
REMARK    1  A    between atoms: _1  and  _3
REMARK    2  A    between atoms: _3  and  _4
REMARK    3  A    between atoms: _3  and  _6
REMARK    4  A    between atoms: _6  and  _7
REMARK    5  A    between atoms: _17  and  _19
REMARK    6  A    between atoms: _19  and  _20
REMARK    7  A    between atoms: _19  and  _22
REMARK    8  A    between atoms: _22  and  _23
REMARK    9  A    between atoms: _26  and  _28
REMARK   10  A    between atoms: _28  and  _29
REMARK   11  A    between atoms: _28  and  _31
REMARK   12  A    between atoms: _31  and  _32
REMARK   13  A    between atoms: _37  and  _39
REMARK   14  A    between atoms: _39  and  _40
REMARK   15  A    between atoms: _42  and  _44
REMARK   16  A    between atoms: _44  and  _45
REMARK   17  A    between atoms: _44  and  _47
REMARK   18  A    between atoms: _47  and  _48
REMARK   19  A    between atoms: _53  and  _55
REMARK   20  A    between atoms: _55  and  _56
REMARK   21  A    between atoms: _59  and  _61
REMARK   22  A    between atoms: _61  and  _62
REMARK   23  A    between atoms: _61  and  _64
REMARK   24  A    between atoms: _64  and  _65
REMARK   25  A    between atoms: _71  and  _73
REMARK   26  A    between atoms: _73  and  _74
REMARK   27  A    between atoms: _73  and  _76
REMARK   28  A    between atoms: _76  and  _77
REMARK   29  A    between atoms: _82  and  _84
REMARK   30  A    between atoms: _84  and  _85
REMARK   31  A    between atoms: _84  and  _87
REMARK   32  A    between atoms: _87  and  _88
REMARK   33  A    between atoms: _88  and  _89
REMARK   34  A    between atoms: _92  and  _94
REMARK   35  A    between atoms: _94  and  _95
REMARK   36  A    between atoms: _94  and  _97
REMARK   37  A    between atoms: _97  and  _98
REMARK   38  A    between atoms: _101  and  _103
REMARK   39  A    between atoms: _103  and  _104
REMARK   40  A    between atoms: _103  and  _106
REMARK   41  A    between atoms: _106  and  _107
REMARK   42  A    between atoms: _107  and  _108
REMARK   43  A    between atoms: _113  and  _115
REMARK   44  A    between atoms: _115  and  _116
REMARK   45  A    between atoms: _115  and  _118
REMARK   46  A    between atoms: _118  and  _119
REMARK   47  A    between atoms: _125  and  _127
REMARK   48  A    between atoms: _127  and  _128
REMARK   49  A    between atoms: _127  and  _130
REMARK   50  A    between atoms: _130  and  _131
REMARK   51  A    between atoms: _135  and  ZN_212
REMARK   52  A    between atoms: _136  and  _138
REMARK   53  A    between atoms: _138  and  _139
REMARK   54  A    between atoms: _138  and  _141
REMARK   55  A    between atoms: _141  and  _142
REMARK   56  A    between atoms: _146  and  ZN_212
REMARK   57  A    between atoms: _147  and  _149
REMARK   58  A    between atoms: _149  and  _150
REMARK   59  A    between atoms: _149  and  _152
REMARK   60  A    between atoms: _155  and  _157
REMARK   61  A    between atoms: _157  and  _158
REMARK   62  A    between atoms: _157  and  _160
REMARK   63  A    between atoms: _160  and  _161
REMARK   64  A    between atoms: _167  and  _169
REMARK   65  A    between atoms: _169  and  _170
REMARK   66  A    between atoms: _169  and  _172
REMARK   67  A    between atoms: _172  and  _173
REMARK   68  A    between atoms: _173  and  _174
REMARK   69  A    between atoms: _174  and  _175
REMARK   70  A    between atoms: _175  and  _176
REMARK   71  A    between atoms: _180  and  _182
REMARK   72  A    between atoms: _182  and  _183
REMARK   73  A    between atoms: _182  and  _185
REMARK   74  A    between atoms: _185  and  _186
REMARK   75  A    between atoms: _189  and  _191
REMARK   76  A    between atoms: _191  and  _192
REMARK   77  A    between atoms: _191  and  _194
REMARK   78  A    between atoms: _194  and  _195
REMARK   79  A    between atoms: _199  and  _200
REMARK   80  A    between atoms: _206  and  _207
REMARK                            x       y       z     vdW  Elec       q    Type
REMARK                         _______ _______ _______ _____ _____    ______ ____
ROOT
ATOM      1  O   HOH     1      -4.195  -1.123  11.827  0.00  0.00    +0.000 OA
ENDROOT
TORSDOF 0
REMARK  Name = ../refined-set-2016/1avn/1avn_pocket.pdb
REMARK  80 active torsions:
REMARK  status: ('A' for Active; 'I' for Inactive)
REMARK    1  A    between atoms: _1  and  _3
REMARK    2  A    between atoms: _3  and  _4
REMARK    3  A    between atoms: _3  and  _6
REMARK    4  A    between atoms: _6  and  _7
REMARK    5  A    between atoms: _17  and  _19
REMARK    6  A    between atoms: _19  and  _20
REMARK    7  A    between atoms: _19  and  _22
REMARK    8  A    between atoms: _22  and  _23
REMARK    9  A    between atoms: _26  and  _28
REMARK   10  A    between atoms: _28  and  _29
REMARK   11  A    between atoms: _28  and  _31
REMARK   12  A    between atoms: _31  and  _32
REMARK   13  A    between atoms: _37  and  _39
REMARK   14  A    between atoms: _39  and  _40
REMARK   15  A    between atoms: _42  and  _44
REMARK   16  A    between atoms: _44  and  _45
REMARK   17  A    between atoms: _44  and  _47
REMARK   18  A    between atoms: _47  and  _48
REMARK   19  A    between atoms: _53  and  _55
REMARK   20  A    between atoms: _55  and  _56
REMARK   21  A    between atoms: _59  and  _61
REMARK   22  A    between atoms: _61  and  _62
REMARK   23  A    between atoms: _61  and  _64
REMARK   24  A    between atoms: _64  and  _65
REMARK   25  A    between atoms: _71  and  _73
REMARK   26  A    between atoms: _73  and  _74
REMARK   27  A    between atoms: _73  and  _76
REMARK   28  A    between atoms: _76  and  _77
REMARK   29  A    between atoms: _82  and  _84
REMARK   30  A    between atoms: _84  and  _85
REMARK   31  A    between atoms: _84  and  _87
REMARK   32  A    between atoms: _87  and  _88
REMARK   33  A    between atoms: _88  and  _89
REMARK   34  A    between atoms: _92  and  _94
REMARK   35  A    between atoms: _94  and  _95
REMARK   36  A    between atoms: _94  and  _97
REMARK   37  A    between atoms: _97  and  _98
REMARK   38  A    between atoms: _101  and  _103
REMARK   39  A    between atoms: _103  and  _104
REMARK   40  A    between atoms: _103  and  _106
REMARK   41  A    between atoms: _106  and  _107
REMARK   42  A    between atoms: _107  and  _108
REMARK   43  A    between atoms: _113  and  _115
REMARK   44  A    between atoms: _115  and  _116
REMARK   45  A    between atoms: _115  and  _118
REMARK   46  A    between atoms: _118  and  _119
REMARK   47  A    between atoms: _125  and  _127
REMARK   48  A    between atoms: _127  and  _128
REMARK   49  A    between atoms: _127  and  _130
REMARK   50  A    between atoms: _130  and  _131
REMARK   51  A    between atoms: _135  and  ZN_212
REMARK   52  A    between atoms: _136  and  _138
REMARK   53  A    between atoms: _138  and  _139
REMARK   54  A    between atoms: _138  and  _141
REMARK   55  A    between atoms: _141  and  _142
REMARK   56  A    between atoms: _146  and  ZN_212
REMARK   57  A    between atoms: _147  and  _149
REMARK   58  A    between atoms: _149  and  _150
REMARK   59  A    between atoms: _149  and  _152
REMARK   60  A    between atoms: _155  and  _157
REMARK   61  A    between atoms: _157  and  _158
REMARK   62  A    between atoms: _157  and  _160
REMARK   63  A    between atoms: _160  and  _161
REMARK   64  A    between atoms: _167  and  _169
REMARK   65  A    between atoms: _169  and  _170
REMARK   66  A    between atoms: _169  and  _172
REMARK   67  A    between atoms: _172  and  _173
REMARK   68  A    between atoms: _173  and  _174
REMARK   69  A    between atoms: _174  and  _175
REMARK   70  A    between atoms: _175  and  _176
REMARK   71  A    between atoms: _180  and  _182
REMARK   72  A    between atoms: _182  and  _183
REMARK   73  A    between atoms: _182  and  _185
REMARK   74  A    between atoms: _185  and  _186
REMARK   75  A    between atoms: _189  and  _191
REMARK   76  A    between atoms: _191  and  _192
REMARK   77  A    between atoms: _191  and  _194
REMARK   78  A    between atoms: _194  and  _195
REMARK   79  A    between atoms: _199  and  _200
REMARK   80  A    between atoms: _206  and  _207
REMARK                            x       y       z     vdW  Elec       q    Type
REMARK                         _______ _______ _______ _____ _____    ______ ____
ROOT
ATOM      1  O   HOH     1      -4.976   0.930  10.238  0.00  0.00    +0.000 OA
ENDROOT
TORSDOF 0
REMARK  Name = ../refined-set-2016/1avn/1avn_pocket.pdb
REMARK  80 active torsions:
REMARK  status: ('A' for Active; 'I' for Inactive)
REMARK    1  A    between atoms: _1  and  _3
REMARK    2  A    between atoms: _3  and  _4
REMARK    3  A    between atoms: _3  and  _6
REMARK    4  A    between atoms: _6  and  _7
REMARK    5  A    between atoms: _17  and  _19
REMARK    6  A    between atoms: _19  and  _20
REMARK    7  A    between atoms: _19  and  _22
REMARK    8  A    between atoms: _22  and  _23
REMARK    9  A    between atoms: _26  and  _28
REMARK   10  A    between atoms: _28  and  _29
REMARK   11  A    between atoms: _28  and  _31
REMARK   12  A    between atoms: _31  and  _32
REMARK   13  A    between atoms: _37  and  _39
REMARK   14  A    between atoms: _39  and  _40
REMARK   15  A    between atoms: _42  and  _44
REMARK   16  A    between atoms: _44  and  _45
REMARK   17  A    between atoms: _44  and  _47
REMARK   18  A    between atoms: _47  and  _48
REMARK   19  A    between atoms: _53  and  _55
REMARK   20  A    between atoms: _55  and  _56
REMARK   21  A    between atoms: _59  and  _61
REMARK   22  A    between atoms: _61  and  _62
REMARK   23  A    between atoms: _61  and  _64
REMARK   24  A    between atoms: _64  and  _65
REMARK   25  A    between atoms: _71  and  _73
REMARK   26  A    between atoms: _73  and  _74
REMARK   27  A    between atoms: _73  and  _76
REMARK   28  A    between atoms: _76  and  _77
REMARK   29  A    between atoms: _82  and  _84
REMARK   30  A    between atoms: _84  and  _85
REMARK   31  A    between atoms: _84  and  _87
REMARK   32  A    between atoms: _87  and  _88
REMARK   33  A    between atoms: _88  and  _89
REMARK   34  A    between atoms: _92  and  _94
REMARK   35  A    between atoms: _94  and  _95
REMARK   36  A    between atoms: _94  and  _97
REMARK   37  A    between atoms: _97  and  _98
REMARK   38  A    between atoms: _101  and  _103
REMARK   39  A    between atoms: _103  and  _104
REMARK   40  A    between atoms: _103  and  _106
REMARK   41  A    between atoms: _106  and  _107
REMARK   42  A    between atoms: _107  and  _108
REMARK   43  A    between atoms: _113  and  _115
REMARK   44  A    between atoms: _115  and  _116
REMARK   45  A    between atoms: _115  and  _118
REMARK   46  A    between atoms: _118  and  _119
REMARK   47  A    between atoms: _125  and  _127
REMARK   48  A    between atoms: _127  and  _128
REMARK   49  A    between atoms: _127  and  _130
REMARK   50  A    between atoms: _130  and  _131
REMARK   51  A    between atoms: _135  and  ZN_212
REMARK   52  A    between atoms: _136  and  _138
REMARK   53  A    between atoms: _138  and  _139
REMARK   54  A    between atoms: _138  and  _141
REMARK   55  A    between atoms: _141  and  _142
REMARK   56  A    between atoms: _146  and  ZN_212
REMARK   57  A    between atoms: _147  and  _149
REMARK   58  A    between atoms: _149  and  _150
REMARK   59  A    between atoms: _149  and  _152
REMARK   60  A    between atoms: _155  and  _157
REMARK   61  A    between atoms: _157  and  _158
REMARK   62  A    between atoms: _157  and  _160
REMARK   63  A    between atoms: _160  and  _161
REMARK   64  A    between atoms: _167  and  _169
REMARK   65  A    between atoms: _169  and  _170
REMARK   66  A    between atoms: _169  and  _172
REMARK   67  A    between atoms: _172  and  _173
REMARK   68  A    between atoms: _173  and  _174
REMARK   69  A    between atoms: _174  and  _175
REMARK   70  A    between atoms: _175  and  _176
REMARK   71  A    between atoms: _180  and  _182
REMARK   72  A    between atoms: _182  and  _183
REMARK   73  A    between atoms: _182  and  _185
REMARK   74  A    between atoms: _185  and  _186
REMARK   75  A    between atoms: _189  and  _191
REMARK   76  A    between atoms: _191  and  _192
REMARK   77  A    between atoms: _191  and  _194
REMARK   78  A    between atoms: _194  and  _195
REMARK   79  A    between atoms: _199  and  _200
REMARK   80  A    between atoms: _206  and  _207
REMARK                            x       y       z     vdW  Elec       q    Type
REMARK                         _______ _______ _______ _____ _____    ______ ____
ROOT
ATOM      1  O   HOH     1       3.468  -1.219   8.379  0.00  0.00    +0.000 OA
ENDROOT
TORSDOF 0
REMARK  Name = ../refined-set-2016/1avn/1avn_pocket.pdb
REMARK  80 active torsions:
REMARK  status: ('A' for Active; 'I' for Inactive)
REMARK    1  A    between atoms: _1  and  _3
REMARK    2  A    between atoms: _3  and  _4
REMARK    3  A    between atoms: _3  and  _6
REMARK    4  A    between atoms: _6  and  _7
REMARK    5  A    between atoms: _17  and  _19
REMARK    6  A    between atoms: _19  and  _20
REMARK    7  A    between atoms: _19  and  _22
REMARK    8  A    between atoms: _22  and  _23
REMARK    9  A    between atoms: _26  and  _28
REMARK   10  A    between atoms: _28  and  _29
REMARK   11  A    between atoms: _28  and  _31
REMARK   12  A    between atoms: _31  and  _32
REMARK   13  A    between atoms: _37  and  _39
REMARK   14  A    between atoms: _39  and  _40
REMARK   15  A    between atoms: _42  and  _44
REMARK   16  A    between atoms: _44  and  _45
REMARK   17  A    between atoms: _44  and  _47
REMARK   18  A    between atoms: _47  and  _48
REMARK   19  A    between atoms: _53  and  _55
REMARK   20  A    between atoms: _55  and  _56
REMARK   21  A    between atoms: _59  and  _61
REMARK   22  A    between atoms: _61  and  _62
REMARK   23  A    between atoms: _61  and  _64
REMARK   24  A    between atoms: _64  and  _65
REMARK   25  A    between atoms: _71  and  _73
REMARK   26  A    between atoms: _73  and  _74
REMARK   27  A    between atoms: _73  and  _76
REMARK   28  A    between atoms: _76  and  _77
REMARK   29  A    between atoms: _82  and  _84
REMARK   30  A    between atoms: _84  and  _85
REMARK   31  A    between atoms: _84  and  _87
REMARK   32  A    between atoms: _87  and  _88
REMARK   33  A    between atoms: _88  and  _89
REMARK   34  A    between atoms: _92  and  _94
REMARK   35  A    between atoms: _94  and  _95
REMARK   36  A    between atoms: _94  and  _97
REMARK   37  A    between atoms: _97  and  _98
REMARK   38  A    between atoms: _101  and  _103
REMARK   39  A    between atoms: _103  and  _104
REMARK   40  A    between atoms: _103  and  _106
REMARK   41  A    between atoms: _106  and  _107
REMARK   42  A    between atoms: _107  and  _108
REMARK   43  A    between atoms: _113  and  _115
REMARK   44  A    between atoms: _115  and  _116
REMARK   45  A    between atoms: _115  and  _118
REMARK   46  A    between atoms: _118  and  _119
REMARK   47  A    between atoms: _125  and  _127
REMARK   48  A    between atoms: _127  and  _128
REMARK   49  A    between atoms: _127  and  _130
REMARK   50  A    between atoms: _130  and  _131
REMARK   51  A    between atoms: _135  and  ZN_212
REMARK   52  A    between atoms: _136  and  _138
REMARK   53  A    between atoms: _138  and  _139
REMARK   54  A    between atoms: _138  and  _141
REMARK   55  A    between atoms: _141  and  _142
REMARK   56  A    between atoms: _146  and  ZN_212
REMARK   57  A    between atoms: _147  and  _149
REMARK   58  A    between atoms: _149  and  _150
REMARK   59  A    between atoms: _149  and  _152
REMARK   60  A    between atoms: _155  and  _157
REMARK   61  A    between atoms: _157  and  _158
REMARK   62  A    between atoms: _157  and  _160
REMARK   63  A    between atoms: _160  and  _161
REMARK   64  A    between atoms: _167  and  _169
REMARK   65  A    between atoms: _169  and  _170
REMARK   66  A    between atoms: _169  and  _172
REMARK   67  A    between atoms: _172  and  _173
REMARK   68  A    between atoms: _173  and  _174
REMARK   69  A    between atoms: _174  and  _175
REMARK   70  A    between atoms: _175  and  _176
REMARK   71  A    between atoms: _180  and  _182
REMARK   72  A    between atoms: _182  and  _183
REMARK   73  A    between atoms: _182  and  _185
REMARK   74  A    between atoms: _185  and  _186
REMARK   75  A    between atoms: _189  and  _191
REMARK   76  A    between atoms: _191  and  _192
REMARK   77  A    between atoms: _191  and  _194
REMARK   78  A    between atoms: _194  and  _195
REMARK   79  A    between atoms: _199  and  _200
REMARK   80  A    between atoms: _206  and  _207
REMARK                            x       y       z     vdW  Elec       q    Type
REMARK                         _______ _______ _______ _____ _____    ______ ____
ROOT
ATOM      1  O   HOH     1      -1.283   3.840  13.855  0.00  0.00    +0.000 OA
ENDROOT
TORSDOF 0
REMARK  Name = ../refined-set-2016/1avn/1avn_pocket.pdb
REMARK  80 active torsions:
REMARK  status: ('A' for Active; 'I' for Inactive)
REMARK    1  A    between atoms: _1  and  _3
REMARK    2  A    between atoms: _3  and  _4
REMARK    3  A    between atoms: _3  and  _6
REMARK    4  A    between atoms: _6  and  _7
REMARK    5  A    between atoms: _17  and  _19
REMARK    6  A    between atoms: _19  and  _20
REMARK    7  A    between atoms: _19  and  _22
REMARK    8  A    between atoms: _22  and  _23
REMARK    9  A    between atoms: _26  and  _28
REMARK   10  A    between atoms: _28  and  _29
REMARK   11  A    between atoms: _28  and  _31
REMARK   12  A    between atoms: _31  and  _32
REMARK   13  A    between atoms: _37  and  _39
REMARK   14  A    between atoms: _39  and  _40
REMARK   15  A    between atoms: _42  and  _44
REMARK   16  A    between atoms: _44  and  _45
REMARK   17  A    between atoms: _44  and  _47
REMARK   18  A    between atoms: _47  and  _48
REMARK   19  A    between atoms: _53  and  _55
REMARK   20  A    between atoms: _55  and  _56
REMARK   21  A    between atoms: _59  and  _61
REMARK   22  A    between atoms: _61  and  _62
REMARK   23  A    between atoms: _61  and  _64
REMARK   24  A    between atoms: _64  and  _65
REMARK   25  A    between atoms: _71  and  _73
REMARK   26  A    between atoms: _73  and  _74
REMARK   27  A    between atoms: _73  and  _76
REMARK   28  A    between atoms: _76  and  _77
REMARK   29  A    between atoms: _82  and  _84
REMARK   30  A    between atoms: _84  and  _85
REMARK   31  A    between atoms: _84  and  _87
REMARK   32  A    between atoms: _87  and  _88
REMARK   33  A    between atoms: _88  and  _89
REMARK   34  A    between atoms: _92  and  _94
REMARK   35  A    between atoms: _94  and  _95
REMARK   36  A    between atoms: _94  and  _97
REMARK   37  A    between atoms: _97  and  _98
REMARK   38  A    between atoms: _101  and  _103
REMARK   39  A    between atoms: _103  and  _104
REMARK   40  A    between atoms: _103  and  _106
REMARK   41  A    between atoms: _106  and  _107
REMARK   42  A    between atoms: _107  and  _108
REMARK   43  A    between atoms: _113  and  _115
REMARK   44  A    between atoms: _115  and  _116
REMARK   45  A    between atoms: _115  and  _118
REMARK   46  A    between atoms: _118  and  _119
REMARK   47  A    between atoms: _125  and  _127
REMARK   48  A    between atoms: _127  and  _128
REMARK   49  A    between atoms: _127  and  _130
REMARK   50  A    between atoms: _130  and  _131
REMARK   51  A    between atoms: _135  and  ZN_212
REMARK   52  A    between atoms: _136  and  _138
REMARK   53  A    between atoms: _138  and  _139
REMARK   54  A    between atoms: _138  and  _141
REMARK   55  A    between atoms: _141  and  _142
REMARK   56  A    between atoms: _146  and  ZN_212
REMARK   57  A    between atoms: _147  and  _149
REMARK   58  A    between atoms: _149  and  _150
REMARK   59  A    between atoms: _149  and  _152
REMARK   60  A    between atoms: _155  and  _157
REMARK   61  A    between atoms: _157  and  _158
REMARK   62  A    between atoms: _157  and  _160
REMARK   63  A    between atoms: _160  and  _161
REMARK   64  A    between atoms: _167  and  _169
REMARK   65  A    between atoms: _169  and  _170
REMARK   66  A    between atoms: _169  and  _172
REMARK   67  A    between atoms: _172  and  _173
REMARK   68  A    between atoms: _173  and  _174
REMARK   69  A    between atoms: _174  and  _175
REMARK   70  A    between atoms: _175  and  _176
REMARK   71  A    between atoms: _180  and  _182
REMARK   72  A    between atoms: _182  and  _183
REMARK   73  A    between atoms: _182  and  _185
REMARK   74  A    between atoms: _185  and  _186
REMARK   75  A    between atoms: _189  and  _191
REMARK   76  A    between atoms: _191  and  _192
REMARK   77  A    between atoms: _191  and  _194
REMARK   78  A    between atoms: _194  and  _195
REMARK   79  A    between atoms: _199  and  _200
REMARK   80  A    between atoms: _206  and  _207
REMARK                            x       y       z     vdW  Elec       q    Type
REMARK                         _______ _______ _______ _____ _____    ______ ____
ROOT
ATOM      1  O   HOH     1      -2.362   6.967  14.557  0.00  0.00    +0.000 OA
ENDROOT
TORSDOF 0
REMARK  Name = ../refined-set-2016/1avn/1avn_pocket.pdb
REMARK  80 active torsions:
REMARK  status: ('A' for Active; 'I' for Inactive)
REMARK    1  A    between atoms: _1  and  _3
REMARK    2  A    between atoms: _3  and  _4
REMARK    3  A    between atoms: _3  and  _6
REMARK    4  A    between atoms: _6  and  _7
REMARK    5  A    between atoms: _17  and  _19
REMARK    6  A    between atoms: _19  and  _20
REMARK    7  A    between atoms: _19  and  _22
REMARK    8  A    between atoms: _22  and  _23
REMARK    9  A    between atoms: _26  and  _28
REMARK   10  A    between atoms: _28  and  _29
REMARK   11  A    between atoms: _28  and  _31
REMARK   12  A    between atoms: _31  and  _32
REMARK   13  A    between atoms: _37  and  _39
REMARK   14  A    between atoms: _39  and  _40
REMARK   15  A    between atoms: _42  and  _44
REMARK   16  A    between atoms: _44  and  _45
REMARK   17  A    between atoms: _44  and  _47
REMARK   18  A    between atoms: _47  and  _48
REMARK   19  A    between atoms: _53  and  _55
REMARK   20  A    between atoms: _55  and  _56
REMARK   21  A    between atoms: _59  and  _61
REMARK   22  A    between atoms: _61  and  _62
REMARK   23  A    between atoms: _61  and  _64
REMARK   24  A    between atoms: _64  and  _65
REMARK   25  A    between atoms: _71  and  _73
REMARK   26  A    between atoms: _73  and  _74
REMARK   27  A    between atoms: _73  and  _76
REMARK   28  A    between atoms: _76  and  _77
REMARK   29  A    between atoms: _82  and  _84
REMARK   30  A    between atoms: _84  and  _85
REMARK   31  A    between atoms: _84  and  _87
REMARK   32  A    between atoms: _87  and  _88
REMARK   33  A    between atoms: _88  and  _89
REMARK   34  A    between atoms: _92  and  _94
REMARK   35  A    between atoms: _94  and  _95
REMARK   36  A    between atoms: _94  and  _97
REMARK   37  A    between atoms: _97  and  _98
REMARK   38  A    between atoms: _101  and  _103
REMARK   39  A    between atoms: _103  and  _104
REMARK   40  A    between atoms: _103  and  _106
REMARK   41  A    between atoms: _106  and  _107
REMARK   42  A    between atoms: _107  and  _108
REMARK   43  A    between atoms: _113  and  _115
REMARK   44  A    between atoms: _115  and  _116
REMARK   45  A    between atoms: _115  and  _118
REMARK   46  A    between atoms: _118  and  _119
REMARK   47  A    between atoms: _125  and  _127
REMARK   48  A    between atoms: _127  and  _128
REMARK   49  A    between atoms: _127  and  _130
REMARK   50  A    between atoms: _130  and  _131
REMARK   51  A    between atoms: _135  and  ZN_212
REMARK   52  A    between atoms: _136  and  _138
REMARK   53  A    between atoms: _138  and  _139
REMARK   54  A    between atoms: _138  and  _141
REMARK   55  A    between atoms: _141  and  _142
REMARK   56  A    between atoms: _146  and  ZN_212
REMARK   57  A    between atoms: _147  and  _149
REMARK   58  A    between atoms: _149  and  _150
REMARK   59  A    between atoms: _149  and  _152
REMARK   60  A    between atoms: _155  and  _157
REMARK   61  A    between atoms: _157  and  _158
REMARK   62  A    between atoms: _157  and  _160
REMARK   63  A    between atoms: _160  and  _161
REMARK   64  A    between atoms: _167  and  _169
REMARK   65  A    between atoms: _169  and  _170
REMARK   66  A    between atoms: _169  and  _172
REMARK   67  A    between atoms: _172  and  _173
REMARK   68  A    between atoms: _173  and  _174
REMARK   69  A    between atoms: _174  and  _175
REMARK   70  A    between atoms: _175  and  _176
REMARK   71  A    between atoms: _180  and  _182
REMARK   72  A    between atoms: _182  and  _183
REMARK   73  A    between atoms: _182  and  _185
REMARK   74  A    between atoms: _185  and  _186
REMARK   75  A    between atoms: _189  and  _191
REMARK   76  A    between atoms: _191  and  _192
REMARK   77  A    between atoms: _191  and  _194
REMARK   78  A    between atoms: _194  and  _195
REMARK   79  A    between atoms: _199  and  _200
REMARK   80  A    between atoms: _206  and  _207
REMARK                            x       y       z     vdW  Elec       q    Type
REMARK                         _______ _______ _______ _____ _____    ______ ____
ROOT
ATOM      1  O   HOH     1      -5.788   0.269  16.746  0.00  0.00    +0.000 OA
ENDROOT
TORSDOF 0
REMARK  Name = ../refined-set-2016/1avn/1avn_pocket.pdb
REMARK  80 active torsions:
REMARK  status: ('A' for Active; 'I' for Inactive)
REMARK    1  A    between atoms: _1  and  _3
REMARK    2  A    between atoms: _3  and  _4
REMARK    3  A    between atoms: _3  and  _6
REMARK    4  A    between atoms: _6  and  _7
REMARK    5  A    between atoms: _17  and  _19
REMARK    6  A    between atoms: _19  and  _20
REMARK    7  A    between atoms: _19  and  _22
REMARK    8  A    between atoms: _22  and  _23
REMARK    9  A    between atoms: _26  and  _28
REMARK   10  A    between atoms: _28  and  _29
REMARK   11  A    between atoms: _28  and  _31
REMARK   12  A    between atoms: _31  and  _32
REMARK   13  A    between atoms: _37  and  _39
REMARK   14  A    between atoms: _39  and  _40
REMARK   15  A    between atoms: _42  and  _44
REMARK   16  A    between atoms: _44  and  _45
REMARK   17  A    between atoms: _44  and  _47
REMARK   18  A    between atoms: _47  and  _48
REMARK   19  A    between atoms: _53  and  _55
REMARK   20  A    between atoms: _55  and  _56
REMARK   21  A    between atoms: _59  and  _61
REMARK   22  A    between atoms: _61  and  _62
REMARK   23  A    between atoms: _61  and  _64
REMARK   24  A    between atoms: _64  and  _65
REMARK   25  A    between atoms: _71  and  _73
REMARK   26  A    between atoms: _73  and  _74
REMARK   27  A    between atoms: _73  and  _76
REMARK   28  A    between atoms: _76  and  _77
REMARK   29  A    between atoms: _82  and  _84
REMARK   30  A    between atoms: _84  and  _85
REMARK   31  A    between atoms: _84  and  _87
REMARK   32  A    between atoms: _87  and  _88
REMARK   33  A    between atoms: _88  and  _89
REMARK   34  A    between atoms: _92  and  _94
REMARK   35  A    between atoms: _94  and  _95
REMARK   36  A    between atoms: _94  and  _97
REMARK   37  A    between atoms: _97  and  _98
REMARK   38  A    between atoms: _101  and  _103
REMARK   39  A    between atoms: _103  and  _104
REMARK   40  A    between atoms: _103  and  _106
REMARK   41  A    between atoms: _106  and  _107
REMARK   42  A    between atoms: _107  and  _108
REMARK   43  A    between atoms: _113  and  _115
REMARK   44  A    between atoms: _115  and  _116
REMARK   45  A    between atoms: _115  and  _118
REMARK   46  A    between atoms: _118  and  _119
REMARK   47  A    between atoms: _125  and  _127
REMARK   48  A    between atoms: _127  and  _128
REMARK   49  A    between atoms: _127  and  _130
REMARK   50  A    between atoms: _130  and  _131
REMARK   51  A    between atoms: _135  and  ZN_212
REMARK   52  A    between atoms: _136  and  _138
REMARK   53  A    between atoms: _138  and  _139
REMARK   54  A    between atoms: _138  and  _141
REMARK   55  A    between atoms: _141  and  _142
REMARK   56  A    between atoms: _146  and  ZN_212
REMARK   57  A    between atoms: _147  and  _149
REMARK   58  A    between atoms: _149  and  _150
REMARK   59  A    between atoms: _149  and  _152
REMARK   60  A    between atoms: _155  and  _157
REMARK   61  A    between atoms: _157  and  _158
REMARK   62  A    between atoms: _157  and  _160
REMARK   63  A    between atoms: _160  and  _161
REMARK   64  A    between atoms: _167  and  _169
REMARK   65  A    between atoms: _169  and  _170
REMARK   66  A    between atoms: _169  and  _172
REMARK   67  A    between atoms: _172  and  _173
REMARK   68  A    between atoms: _173  and  _174
REMARK   69  A    between atoms: _174  and  _175
REMARK   70  A    between atoms: _175  and  _176
REMARK   71  A    between atoms: _180  and  _182
REMARK   72  A    between atoms: _182  and  _183
REMARK   73  A    between atoms: _182  and  _185
REMARK   74  A    between atoms: _185  and  _186
REMARK   75  A    between atoms: _189  and  _191
REMARK   76  A    between atoms: _191  and  _192
REMARK   77  A    between atoms: _191  and  _194
REMARK   78  A    between atoms: _194  and  _195
REMARK   79  A    between atoms: _199  and  _200
REMARK   80  A    between atoms: _206  and  _207
REMARK                            x       y       z     vdW  Elec       q    Type
REMARK                         _______ _______ _______ _____ _____    ______ ____
ROOT
ATOM      1  O   HOH     1      -7.056   8.167   9.852  0.00  0.00    +0.000 OA
ENDROOT
TORSDOF 0
