REMARK  Name = ../refined-set-2016/3own/3own_pocket.pdb
REMARK  277 active torsions:
REMARK  status: ('A' for Active; 'I' for Inactive)
REMARK    1  A    between atoms: _1  and  _3
REMARK    2  A    between atoms: _3  and  _4
REMARK    3  A    between atoms: _3  and  _6
REMARK    4  A    between atoms: _6  and  _7
REMARK    5  A    between atoms: _12  and  _13
REMARK    6  A    between atoms: _15  and  _17
REMARK    7  A    between atoms: _17  and  _18
REMARK    8  A    between atoms: _17  and  _20
REMARK    9  A    between atoms: _20  and  _21
REMARK   10  A    between atoms: _24  and  _26
REMARK   11  A    between atoms: _26  and  _27
REMARK   12  A    between atoms: _26  and  _29
REMARK   13  A    between atoms: _29  and  _30
REMARK   14  A    between atoms: _33  and  _35
REMARK   15  A    between atoms: _35  and  _36
REMARK   16  A    between atoms: _35  and  _38
REMARK   17  A    between atoms: _38  and  _39
REMARK   18  A    between atoms: _39  and  _40
REMARK   19  A    between atoms: _45  and  _47
REMARK   20  A    between atoms: _47  and  _48
REMARK   21  A    between atoms: _47  and  _50
REMARK   22  A    between atoms: _50  and  _51
REMARK   23  A    between atoms: _56  and  _57
REMARK   24  A    between atoms: _59  and  _61
REMARK   25  A    between atoms: _61  and  _62
REMARK   26  A    between atoms: _61  and  _64
REMARK   27  A    between atoms: _67  and  _69
REMARK   28  A    between atoms: _69  and  _70
REMARK   29  A    between atoms: _69  and  _72
REMARK   30  A    between atoms: _72  and  _73
REMARK   31  A    between atoms: _79  and  _81
REMARK   32  A    between atoms: _81  and  _82
REMARK   33  A    between atoms: _81  and  _84
REMARK   34  A    between atoms: _84  and  _85
REMARK   35  A    between atoms: _88  and  _90
REMARK   36  A    between atoms: _90  and  _91
REMARK   37  A    between atoms: _90  and  _93
REMARK   38  A    between atoms: _93  and  _94
REMARK   39  A    between atoms: _97  and  _99
REMARK   40  A    between atoms: _99  and  _100
REMARK   41  A    between atoms: _102  and  _104
REMARK   42  A    between atoms: _104  and  _105
REMARK   43  A    between atoms: _104  and  _107
REMARK   44  A    between atoms: _107  and  _108
REMARK   45  A    between atoms: _110  and  _112
REMARK   46  A    between atoms: _112  and  _113
REMARK   47  A    between atoms: _112  and  _115
REMARK   48  A    between atoms: _115  and  _116
REMARK   49  A    between atoms: _118  and  _120
REMARK   50  A    between atoms: _120  and  _121
REMARK   51  A    between atoms: _120  and  _123
REMARK   52  A    between atoms: _123  and  _124
REMARK   53  A    between atoms: _129  and  _131
REMARK   54  A    between atoms: _131  and  _132
REMARK   55  A    between atoms: _131  and  _134
REMARK   56  A    between atoms: _134  and  _135
REMARK   57  A    between atoms: _145  and  _147
REMARK   58  A    between atoms: _147  and  _148
REMARK   59  A    between atoms: _147  and  _150
REMARK   60  A    between atoms: _150  and  _151
REMARK   61  A    between atoms: _154  and  _156
REMARK   62  A    between atoms: _156  and  _157
REMARK   63  A    between atoms: _156  and  _159
REMARK   64  A    between atoms: _159  and  _160
REMARK   65  A    between atoms: _163  and  _165
REMARK   66  A    between atoms: _165  and  _166
REMARK   67  A    between atoms: _165  and  _168
REMARK   68  A    between atoms: _168  and  _169
REMARK   69  A    between atoms: _169  and  _170
REMARK   70  A    between atoms: _170  and  _171
REMARK   71  A    between atoms: _180  and  _182
REMARK   72  A    between atoms: _182  and  _183
REMARK   73  A    between atoms: _182  and  _185
REMARK   74  A    between atoms: _185  and  _186
REMARK   75  A    between atoms: _191  and  _192
REMARK   76  A    between atoms: _194  and  _196
REMARK   77  A    between atoms: _196  and  _197
REMARK   78  A    between atoms: _196  and  _199
REMARK   79  A    between atoms: _199  and  _200
REMARK   80  A    between atoms: _202  and  _204
REMARK   81  A    between atoms: _204  and  _205
REMARK   82  A    between atoms: _204  and  _207
REMARK   83  A    between atoms: _207  and  _208
REMARK   84  A    between atoms: _211  and  _213
REMARK   85  A    between atoms: _213  and  _214
REMARK   86  A    between atoms: _216  and  _218
REMARK   87  A    between atoms: _218  and  _219
REMARK   88  A    between atoms: _218  and  _221
REMARK   89  A    between atoms: _224  and  _226
REMARK   90  A    between atoms: _226  and  _227
REMARK   91  A    between atoms: _226  and  _229
REMARK   92  A    between atoms: _229  and  _230
REMARK   93  A    between atoms: _230  and  _231
REMARK   94  A    between atoms: _233  and  _235
REMARK   95  A    between atoms: _235  and  _236
REMARK   96  A    between atoms: _239  and  _241
REMARK   97  A    between atoms: _241  and  _242
REMARK   98  A    between atoms: _241  and  _244
REMARK   99  A    between atoms: _244  and  _245
REMARK  100  A    between atoms: _249  and  _250
REMARK  101  A    between atoms: _255  and  _257
REMARK  102  A    between atoms: _257  and  _258
REMARK  103  A    between atoms: _257  and  _260
REMARK  104  A    between atoms: _260  and  _261
REMARK  105  A    between atoms: _267  and  _269
REMARK  106  A    between atoms: _269  and  _270
REMARK  107  A    between atoms: _269  and  _272
REMARK  108  A    between atoms: _272  and  _273
REMARK  109  A    between atoms: _273  and  _274
REMARK  110  A    between atoms: _276  and  _278
REMARK  111  A    between atoms: _278  and  _279
REMARK  112  A    between atoms: _278  and  _281
REMARK  113  A    between atoms: _281  and  _282
REMARK  114  A    between atoms: _285  and  _287
REMARK  115  A    between atoms: _287  and  _288
REMARK  116  A    between atoms: _291  and  _293
REMARK  117  A    between atoms: _293  and  _294
REMARK  118  A    between atoms: _293  and  _296
REMARK  119  A    between atoms: _296  and  _297
REMARK  120  A    between atoms: _297  and  _298
REMARK  121  A    between atoms: _301  and  _303
REMARK  122  A    between atoms: _303  and  _304
REMARK  123  A    between atoms: _303  and  _306
REMARK  124  A    between atoms: _306  and  _307
REMARK  125  A    between atoms: _313  and  _315
REMARK  126  A    between atoms: _315  and  _316
REMARK  127  A    between atoms: _315  and  _318
REMARK  128  A    between atoms: _318  and  _319
REMARK  129  A    between atoms: _322  and  _324
REMARK  130  A    between atoms: _324  and  _325
REMARK  131  A    between atoms: _327  and  _329
REMARK  132  A    between atoms: _329  and  _330
REMARK  133  A    between atoms: _329  and  _332
REMARK  134  A    between atoms: _335  and  _337
REMARK  135  A    between atoms: _337  and  _338
REMARK  136  A    between atoms: _337  and  _340
REMARK  137  A    between atoms: _343  and  _345
REMARK  138  A    between atoms: _345  and  _346
REMARK  139  A    between atoms: _345  and  _348
REMARK  140  A    between atoms: _348  and  _349
REMARK  141  A    between atoms: _349  and  _350
REMARK  142  A    between atoms: _352  and  _354
REMARK  143  A    between atoms: _354  and  _355
REMARK  144  A    between atoms: _357  and  _359
REMARK  145  A    between atoms: _359  and  _360
REMARK  146  A    between atoms: _359  and  _362
REMARK  147  A    between atoms: _362  and  _363
REMARK  148  A    between atoms: _369  and  _371
REMARK  149  A    between atoms: _371  and  _372
REMARK  150  A    between atoms: _371  and  _374
REMARK  151  A    between atoms: _374  and  _375
REMARK  152  A    between atoms: _375  and  _376
REMARK  153  A    between atoms: _379  and  _381
REMARK  154  A    between atoms: _381  and  _382
REMARK  155  A    between atoms: _381  and  _384
REMARK  156  A    between atoms: _384  and  _385
REMARK  157  A    between atoms: _385  and  _386
REMARK  158  A    between atoms: _391  and  _393
REMARK  159  A    between atoms: _393  and  _394
REMARK  160  A    between atoms: _397  and  _399
REMARK  161  A    between atoms: _399  and  _400
REMARK  162  A    between atoms: _399  and  _402
REMARK  163  A    between atoms: _402  and  _403
REMARK  164  A    between atoms: _406  and  _408
REMARK  165  A    between atoms: _408  and  _409
REMARK  166  A    between atoms: _411  and  _413
REMARK  167  A    between atoms: _413  and  _414
REMARK  168  A    between atoms: _413  and  _416
REMARK  169  A    between atoms: _419  and  _421
REMARK  170  A    between atoms: _421  and  _422
REMARK  171  A    between atoms: _421  and  _424
REMARK  172  A    between atoms: _424  and  _425
REMARK  173  A    between atoms: _425  and  _426
REMARK  174  A    between atoms: _431  and  _433
REMARK  175  A    between atoms: _433  and  _434
REMARK  176  A    between atoms: _433  and  _436
REMARK  177  A    between atoms: _436  and  _437
REMARK  178  A    between atoms: _440  and  _442
REMARK  179  A    between atoms: _442  and  _443
REMARK  180  A    between atoms: _442  and  _445
REMARK  181  A    between atoms: _448  and  _450
REMARK  182  A    between atoms: _450  and  _451
REMARK  183  A    between atoms: _450  and  _453
REMARK  184  A    between atoms: _453  and  _454
REMARK  185  A    between atoms: _457  and  _459
REMARK  186  A    between atoms: _459  and  _460
REMARK  187  A    between atoms: _459  and  _462
REMARK  188  A    between atoms: _462  and  _463
REMARK  189  A    between atoms: _466  and  _468
REMARK  190  A    between atoms: _468  and  _469
REMARK  191  A    between atoms: _471  and  _473
REMARK  192  A    between atoms: _473  and  _474
REMARK  193  A    between atoms: _477  and  _479
REMARK  194  A    between atoms: _479  and  _480
REMARK  195  A    between atoms: _479  and  _482
REMARK  196  A    between atoms: _482  and  _483
REMARK  197  A    between atoms: _485  and  _487
REMARK  198  A    between atoms: _487  and  _488
REMARK  199  A    between atoms: _487  and  _490
REMARK  200  A    between atoms: _490  and  _491
REMARK  201  A    between atoms: _496  and  _497
REMARK  202  A    between atoms: _499  and  _501
REMARK  203  A    between atoms: _501  and  _502
REMARK  204  A    between atoms: _501  and  _504
REMARK  205  A    between atoms: _504  and  _505
REMARK  206  A    between atoms: _508  and  _510
REMARK  207  A    between atoms: _510  and  _511
REMARK  208  A    between atoms: _510  and  _513
REMARK  209  A    between atoms: _513  and  _514
REMARK  210  A    between atoms: _516  and  _518
REMARK  211  A    between atoms: _518  and  _519
REMARK  212  A    between atoms: _521  and  _523
REMARK  213  A    between atoms: _523  and  _524
REMARK  214  A    between atoms: _523  and  _526
REMARK  215  A    between atoms: _526  and  _527
REMARK  216  A    between atoms: _533  and  _535
REMARK  217  A    between atoms: _535  and  _536
REMARK  218  A    between atoms: _535  and  _538
REMARK  219  A    between atoms: _538  and  _539
REMARK  220  A    between atoms: _542  and  _544
REMARK  221  A    between atoms: _544  and  _545
REMARK  222  A    between atoms: _548  and  _550
REMARK  223  A    between atoms: _550  and  _551
REMARK  224  A    between atoms: _550  and  _553
REMARK  225  A    between atoms: _553  and  _554
REMARK  226  A    between atoms: _557  and  _559
REMARK  227  A    between atoms: _559  and  _560
REMARK  228  A    between atoms: _559  and  _562
REMARK  229  A    between atoms: _562  and  _563
REMARK  230  A    between atoms: _568  and  _570
REMARK  231  A    between atoms: _570  and  _571
REMARK  232  A    between atoms: _574  and  _576
REMARK  233  A    between atoms: _576  and  _577
REMARK  234  A    between atoms: _576  and  _579
REMARK  235  A    between atoms: _579  and  _580
REMARK  236  A    between atoms: _580  and  _581
REMARK  237  A    between atoms: _583  and  _585
REMARK  238  A    between atoms: _585  and  _586
REMARK  239  A    between atoms: _585  and  _588
REMARK  240  A    between atoms: _588  and  _589
REMARK  241  A    between atoms: _592  and  _594
REMARK  242  A    between atoms: _594  and  _595
REMARK  243  A    between atoms: _594  and  _597
REMARK  244  A    between atoms: _597  and  _598
REMARK  245  A    between atoms: _602  and  _603
REMARK  246  A    between atoms: _608  and  _610
REMARK  247  A    between atoms: _610  and  _611
REMARK  248  A    between atoms: _610  and  _613
REMARK  249  A    between atoms: _613  and  _614
REMARK  250  A    between atoms: _617  and  _619
REMARK  251  A    between atoms: _619  and  _620
REMARK  252  A    between atoms: _622  and  _624
REMARK  253  A    between atoms: _624  and  _625
REMARK  254  A    between atoms: _624  and  _627
REMARK  255  A    between atoms: _627  and  _628
REMARK  256  A    between atoms: _631  and  _633
REMARK  257  A    between atoms: _633  and  _634
REMARK  258  A    between atoms: _633  and  _636
REMARK  259  A    between atoms: _636  and  _637
REMARK  260  A    between atoms: _647  and  _649
REMARK  261  A    between atoms: _649  and  _650
REMARK  262  A    between atoms: _653  and  _655
REMARK  263  A    between atoms: _655  and  _656
REMARK  264  A    between atoms: _655  and  _658
REMARK  265  A    between atoms: _658  and  _659
REMARK  266  A    between atoms: _662  and  _664
REMARK  267  A    between atoms: _664  and  _665
REMARK  268  A    between atoms: _667  and  _669
REMARK  269  A    between atoms: _669  and  _670
REMARK  270  A    between atoms: _673  and  _675
REMARK  271  A    between atoms: _675  and  _676
REMARK  272  A    between atoms: _675  and  _678
REMARK  273  A    between atoms: _678  and  _679
REMARK  274  A    between atoms: _682  and  _684
REMARK  275  A    between atoms: _684  and  _685
REMARK  276  A    between atoms: _684  and  _687
REMARK  277  A    between atoms: _687  and  _688
REMARK                            x       y       z     vdW  Elec       q    Type
REMARK                         _______ _______ _______ _____ _____    ______ ____
ROOT
ATOM      1  CG  TYR A   1     -12.180 -12.409 -32.042  0.00  0.00    -0.020 A 
ATOM      2  CD2 TYR A   1     -12.382 -13.544 -31.265  0.00  0.00    -0.001 A 
ATOM      3  CE2 TYR A   1     -13.188 -13.506 -30.146  0.00  0.00    +0.036 A 
ATOM      4  CZ  TYR A   1     -13.757 -12.312 -29.777  0.00  0.00    +0.134 A 
ATOM      5  CE1 TYR A   1     -13.557 -11.179 -30.528  0.00  0.00    +0.036 A 
ATOM      6  CD1 TYR A   1     -12.780 -11.227 -31.648  0.00  0.00    -0.001 A 
ENDROOT
BRANCH   4   7
ATOM      7  OH  TYR A   1     -14.569 -12.244 -28.661  0.00  0.00    -0.506 OA
ATOM      8  HH  TYR A   1     -14.890 -11.315 -28.544  0.00  0.00    +0.292 HD
ENDBRANCH   4   7
BRANCH   1   9
ATOM      9  CB  TYR A   1     -11.312 -12.456 -33.271  0.00  0.00    +0.051 C 
BRANCH   9  10
ATOM     10  CA  TYR A   1      -9.911 -11.890 -33.022  0.00  0.00    +0.137 C 
BRANCH  10  11
ATOM     11  N   TYR A   1      -9.091 -12.127 -34.172  0.00  0.00    -0.239 NA
ATOM     12  H   TYR A   1      -9.100 -13.063 -34.625  0.00  0.00    +0.142 HD
ENDBRANCH  10  11
BRANCH  10  13
ATOM     13  C   TYR A   1      -9.218 -12.577 -31.838  0.00  0.00    +0.224 C 
ATOM     14  O   TYR A   1      -9.082 -13.795 -31.827  0.00  0.00    -0.287 OA
ENDBRANCH  10  13
ENDBRANCH   9  10
ENDBRANCH   1   9
TORSDOF 5
REMARK  Name = ../refined-set-2016/3own/3own_pocket.pdb
REMARK  277 active torsions:
REMARK  status: ('A' for Active; 'I' for Inactive)
REMARK    1  A    between atoms: _1  and  _3
REMARK    2  A    between atoms: _3  and  _4
REMARK    3  A    between atoms: _3  and  _6
REMARK    4  A    between atoms: _6  and  _7
REMARK    5  A    between atoms: _12  and  _13
REMARK    6  A    between atoms: _15  and  _17
REMARK    7  A    between atoms: _17  and  _18
REMARK    8  A    between atoms: _17  and  _20
REMARK    9  A    between atoms: _20  and  _21
REMARK   10  A    between atoms: _24  and  _26
REMARK   11  A    between atoms: _26  and  _27
REMARK   12  A    between atoms: _26  and  _29
REMARK   13  A    between atoms: _29  and  _30
REMARK   14  A    between atoms: _33  and  _35
REMARK   15  A    between atoms: _35  and  _36
REMARK   16  A    between atoms: _35  and  _38
REMARK   17  A    between atoms: _38  and  _39
REMARK   18  A    between atoms: _39  and  _40
REMARK   19  A    between atoms: _45  and  _47
REMARK   20  A    between atoms: _47  and  _48
REMARK   21  A    between atoms: _47  and  _50
REMARK   22  A    between atoms: _50  and  _51
REMARK   23  A    between atoms: _56  and  _57
REMARK   24  A    between atoms: _59  and  _61
REMARK   25  A    between atoms: _61  and  _62
REMARK   26  A    between atoms: _61  and  _64
REMARK   27  A    between atoms: _67  and  _69
REMARK   28  A    between atoms: _69  and  _70
REMARK   29  A    between atoms: _69  and  _72
REMARK   30  A    between atoms: _72  and  _73
REMARK   31  A    between atoms: _79  and  _81
REMARK   32  A    between atoms: _81  and  _82
REMARK   33  A    between atoms: _81  and  _84
REMARK   34  A    between atoms: _84  and  _85
REMARK   35  A    between atoms: _88  and  _90
REMARK   36  A    between atoms: _90  and  _91
REMARK   37  A    between atoms: _90  and  _93
REMARK   38  A    between atoms: _93  and  _94
REMARK   39  A    between atoms: _97  and  _99
REMARK   40  A    between atoms: _99  and  _100
REMARK   41  A    between atoms: _102  and  _104
REMARK   42  A    between atoms: _104  and  _105
REMARK   43  A    between atoms: _104  and  _107
REMARK   44  A    between atoms: _107  and  _108
REMARK   45  A    between atoms: _110  and  _112
REMARK   46  A    between atoms: _112  and  _113
REMARK   47  A    between atoms: _112  and  _115
REMARK   48  A    between atoms: _115  and  _116
REMARK   49  A    between atoms: _118  and  _120
REMARK   50  A    between atoms: _120  and  _121
REMARK   51  A    between atoms: _120  and  _123
REMARK   52  A    between atoms: _123  and  _124
REMARK   53  A    between atoms: _129  and  _131
REMARK   54  A    between atoms: _131  and  _132
REMARK   55  A    between atoms: _131  and  _134
REMARK   56  A    between atoms: _134  and  _135
REMARK   57  A    between atoms: _145  and  _147
REMARK   58  A    between atoms: _147  and  _148
REMARK   59  A    between atoms: _147  and  _150
REMARK   60  A    between atoms: _150  and  _151
REMARK   61  A    between atoms: _154  and  _156
REMARK   62  A    between atoms: _156  and  _157
REMARK   63  A    between atoms: _156  and  _159
REMARK   64  A    between atoms: _159  and  _160
REMARK   65  A    between atoms: _163  and  _165
REMARK   66  A    between atoms: _165  and  _166
REMARK   67  A    between atoms: _165  and  _168
REMARK   68  A    between atoms: _168  and  _169
REMARK   69  A    between atoms: _169  and  _170
REMARK   70  A    between atoms: _170  and  _171
REMARK   71  A    between atoms: _180  and  _182
REMARK   72  A    between atoms: _182  and  _183
REMARK   73  A    between atoms: _182  and  _185
REMARK   74  A    between atoms: _185  and  _186
REMARK   75  A    between atoms: _191  and  _192
REMARK   76  A    between atoms: _194  and  _196
REMARK   77  A    between atoms: _196  and  _197
REMARK   78  A    between atoms: _196  and  _199
REMARK   79  A    between atoms: _199  and  _200
REMARK   80  A    between atoms: _202  and  _204
REMARK   81  A    between atoms: _204  and  _205
REMARK   82  A    between atoms: _204  and  _207
REMARK   83  A    between atoms: _207  and  _208
REMARK   84  A    between atoms: _211  and  _213
REMARK   85  A    between atoms: _213  and  _214
REMARK   86  A    between atoms: _216  and  _218
REMARK   87  A    between atoms: _218  and  _219
REMARK   88  A    between atoms: _218  and  _221
REMARK   89  A    between atoms: _224  and  _226
REMARK   90  A    between atoms: _226  and  _227
REMARK   91  A    between atoms: _226  and  _229
REMARK   92  A    between atoms: _229  and  _230
REMARK   93  A    between atoms: _230  and  _231
REMARK   94  A    between atoms: _233  and  _235
REMARK   95  A    between atoms: _235  and  _236
REMARK   96  A    between atoms: _239  and  _241
REMARK   97  A    between atoms: _241  and  _242
REMARK   98  A    between atoms: _241  and  _244
REMARK   99  A    between atoms: _244  and  _245
REMARK  100  A    between atoms: _249  and  _250
REMARK  101  A    between atoms: _255  and  _257
REMARK  102  A    between atoms: _257  and  _258
REMARK  103  A    between atoms: _257  and  _260
REMARK  104  A    between atoms: _260  and  _261
REMARK  105  A    between atoms: _267  and  _269
REMARK  106  A    between atoms: _269  and  _270
REMARK  107  A    between atoms: _269  and  _272
REMARK  108  A    between atoms: _272  and  _273
REMARK  109  A    between atoms: _273  and  _274
REMARK  110  A    between atoms: _276  and  _278
REMARK  111  A    between atoms: _278  and  _279
REMARK  112  A    between atoms: _278  and  _281
REMARK  113  A    between atoms: _281  and  _282
REMARK  114  A    between atoms: _285  and  _287
REMARK  115  A    between atoms: _287  and  _288
REMARK  116  A    between atoms: _291  and  _293
REMARK  117  A    between atoms: _293  and  _294
REMARK  118  A    between atoms: _293  and  _296
REMARK  119  A    between atoms: _296  and  _297
REMARK  120  A    between atoms: _297  and  _298
REMARK  121  A    between atoms: _301  and  _303
REMARK  122  A    between atoms: _303  and  _304
REMARK  123  A    between atoms: _303  and  _306
REMARK  124  A    between atoms: _306  and  _307
REMARK  125  A    between atoms: _313  and  _315
REMARK  126  A    between atoms: _315  and  _316
REMARK  127  A    between atoms: _315  and  _318
REMARK  128  A    between atoms: _318  and  _319
REMARK  129  A    between atoms: _322  and  _324
REMARK  130  A    between atoms: _324  and  _325
REMARK  131  A    between atoms: _327  and  _329
REMARK  132  A    between atoms: _329  and  _330
REMARK  133  A    between atoms: _329  and  _332
REMARK  134  A    between atoms: _335  and  _337
REMARK  135  A    between atoms: _337  and  _338
REMARK  136  A    between atoms: _337  and  _340
REMARK  137  A    between atoms: _343  and  _345
REMARK  138  A    between atoms: _345  and  _346
REMARK  139  A    between atoms: _345  and  _348
REMARK  140  A    between atoms: _348  and  _349
REMARK  141  A    between atoms: _349  and  _350
REMARK  142  A    between atoms: _352  and  _354
REMARK  143  A    between atoms: _354  and  _355
REMARK  144  A    between atoms: _357  and  _359
REMARK  145  A    between atoms: _359  and  _360
REMARK  146  A    between atoms: _359  and  _362
REMARK  147  A    between atoms: _362  and  _363
REMARK  148  A    between atoms: _369  and  _371
REMARK  149  A    between atoms: _371  and  _372
REMARK  150  A    between atoms: _371  and  _374
REMARK  151  A    between atoms: _374  and  _375
REMARK  152  A    between atoms: _375  and  _376
REMARK  153  A    between atoms: _379  and  _381
REMARK  154  A    between atoms: _381  and  _382
REMARK  155  A    between atoms: _381  and  _384
REMARK  156  A    between atoms: _384  and  _385
REMARK  157  A    between atoms: _385  and  _386
REMARK  158  A    between atoms: _391  and  _393
REMARK  159  A    between atoms: _393  and  _394
REMARK  160  A    between atoms: _397  and  _399
REMARK  161  A    between atoms: _399  and  _400
REMARK  162  A    between atoms: _399  and  _402
REMARK  163  A    between atoms: _402  and  _403
REMARK  164  A    between atoms: _406  and  _408
REMARK  165  A    between atoms: _408  and  _409
REMARK  166  A    between atoms: _411  and  _413
REMARK  167  A    between atoms: _413  and  _414
REMARK  168  A    between atoms: _413  and  _416
REMARK  169  A    between atoms: _419  and  _421
REMARK  170  A    between atoms: _421  and  _422
REMARK  171  A    between atoms: _421  and  _424
REMARK  172  A    between atoms: _424  and  _425
REMARK  173  A    between atoms: _425  and  _426
REMARK  174  A    between atoms: _431  and  _433
REMARK  175  A    between atoms: _433  and  _434
REMARK  176  A    between atoms: _433  and  _436
REMARK  177  A    between atoms: _436  and  _437
REMARK  178  A    between atoms: _440  and  _442
REMARK  179  A    between atoms: _442  and  _443
REMARK  180  A    between atoms: _442  and  _445
REMARK  181  A    between atoms: _448  and  _450
REMARK  182  A    between atoms: _450  and  _451
REMARK  183  A    between atoms: _450  and  _453
REMARK  184  A    between atoms: _453  and  _454
REMARK  185  A    between atoms: _457  and  _459
REMARK  186  A    between atoms: _459  and  _460
REMARK  187  A    between atoms: _459  and  _462
REMARK  188  A    between atoms: _462  and  _463
REMARK  189  A    between atoms: _466  and  _468
REMARK  190  A    between atoms: _468  and  _469
REMARK  191  A    between atoms: _471  and  _473
REMARK  192  A    between atoms: _473  and  _474
REMARK  193  A    between atoms: _477  and  _479
REMARK  194  A    between atoms: _479  and  _480
REMARK  195  A    between atoms: _479  and  _482
REMARK  196  A    between atoms: _482  and  _483
REMARK  197  A    between atoms: _485  and  _487
REMARK  198  A    between atoms: _487  and  _488
REMARK  199  A    between atoms: _487  and  _490
REMARK  200  A    between atoms: _490  and  _491
REMARK  201  A    between atoms: _496  and  _497
REMARK  202  A    between atoms: _499  and  _501
REMARK  203  A    between atoms: _501  and  _502
REMARK  204  A    between atoms: _501  and  _504
REMARK  205  A    between atoms: _504  and  _505
REMARK  206  A    between atoms: _508  and  _510
REMARK  207  A    between atoms: _510  and  _511
REMARK  208  A    between atoms: _510  and  _513
REMARK  209  A    between atoms: _513  and  _514
REMARK  210  A    between atoms: _516  and  _518
REMARK  211  A    between atoms: _518  and  _519
REMARK  212  A    between atoms: _521  and  _523
REMARK  213  A    between atoms: _523  and  _524
REMARK  214  A    between atoms: _523  and  _526
REMARK  215  A    between atoms: _526  and  _527
REMARK  216  A    between atoms: _533  and  _535
REMARK  217  A    between atoms: _535  and  _536
REMARK  218  A    between atoms: _535  and  _538
REMARK  219  A    between atoms: _538  and  _539
REMARK  220  A    between atoms: _542  and  _544
REMARK  221  A    between atoms: _544  and  _545
REMARK  222  A    between atoms: _548  and  _550
REMARK  223  A    between atoms: _550  and  _551
REMARK  224  A    between atoms: _550  and  _553
REMARK  225  A    between atoms: _553  and  _554
REMARK  226  A    between atoms: _557  and  _559
REMARK  227  A    between atoms: _559  and  _560
REMARK  228  A    between atoms: _559  and  _562
REMARK  229  A    between atoms: _562  and  _563
REMARK  230  A    between atoms: _568  and  _570
REMARK  231  A    between atoms: _570  and  _571
REMARK  232  A    between atoms: _574  and  _576
REMARK  233  A    between atoms: _576  and  _577
REMARK  234  A    between atoms: _576  and  _579
REMARK  235  A    between atoms: _579  and  _580
REMARK  236  A    between atoms: _580  and  _581
REMARK  237  A    between atoms: _583  and  _585
REMARK  238  A    between atoms: _585  and  _586
REMARK  239  A    between atoms: _585  and  _588
REMARK  240  A    between atoms: _588  and  _589
REMARK  241  A    between atoms: _592  and  _594
REMARK  242  A    between atoms: _594  and  _595
REMARK  243  A    between atoms: _594  and  _597
REMARK  244  A    between atoms: _597  and  _598
REMARK  245  A    between atoms: _602  and  _603
REMARK  246  A    between atoms: _608  and  _610
REMARK  247  A    between atoms: _610  and  _611
REMARK  248  A    between atoms: _610  and  _613
REMARK  249  A    between atoms: _613  and  _614
REMARK  250  A    between atoms: _617  and  _619
REMARK  251  A    between atoms: _619  and  _620
REMARK  252  A    between atoms: _622  and  _624
REMARK  253  A    between atoms: _624  and  _625
REMARK  254  A    between atoms: _624  and  _627
REMARK  255  A    between atoms: _627  and  _628
REMARK  256  A    between atoms: _631  and  _633
REMARK  257  A    between atoms: _633  and  _634
REMARK  258  A    between atoms: _633  and  _636
REMARK  259  A    between atoms: _636  and  _637
REMARK  260  A    between atoms: _647  and  _649
REMARK  261  A    between atoms: _649  and  _650
REMARK  262  A    between atoms: _653  and  _655
REMARK  263  A    between atoms: _655  and  _656
REMARK  264  A    between atoms: _655  and  _658
REMARK  265  A    between atoms: _658  and  _659
REMARK  266  A    between atoms: _662  and  _664
REMARK  267  A    between atoms: _664  and  _665
REMARK  268  A    between atoms: _667  and  _669
REMARK  269  A    between atoms: _669  and  _670
REMARK  270  A    between atoms: _673  and  _675
REMARK  271  A    between atoms: _675  and  _676
REMARK  272  A    between atoms: _675  and  _678
REMARK  273  A    between atoms: _678  and  _679
REMARK  274  A    between atoms: _682  and  _684
REMARK  275  A    between atoms: _684  and  _685
REMARK  276  A    between atoms: _684  and  _687
REMARK  277  A    between atoms: _687  and  _688
REMARK                            x       y       z     vdW  Elec       q    Type
REMARK                         _______ _______ _______ _____ _____    ______ ____
ROOT
ATOM      1  CA  GLN A   3      -9.637 -16.756 -34.475  0.00  0.00    +0.149 C 
ENDROOT
BRANCH   1   4
ATOM      2  C   THR A   2      -8.268 -17.576 -32.660  0.00  0.00    +0.243 C 
ATOM      3  O   THR A   2      -8.371 -18.735 -33.076  0.00  0.00    -0.273 OA
ATOM      4  N   GLN A   3      -8.822 -16.532 -33.290  0.00  0.00    -0.297 N 
ATOM      5  H   GLN A   3      -8.671 -15.566 -32.934  0.00  0.00    +0.150 HD
BRANCH   2   6
ATOM      6  CA  THR A   2      -7.503 -17.304 -31.363  0.00  0.00    +0.176 C 
BRANCH   6   8
ATOM      7  C   ASP A   1      -5.710 -15.755 -31.236  0.00  0.00    +0.239 C 
ATOM      8  N   THR A   2      -7.015 -15.961 -31.292  0.00  0.00    -0.295 N 
ATOM      9  H   THR A   2      -7.677 -15.159 -31.285  0.00  0.00    +0.150 HD
ATOM     10  O   ASP A   1      -4.891 -16.693 -31.301  0.00  0.00    -0.274 OA
BRANCH   7  11
ATOM     11  CA  ASP A   1      -5.247 -14.311 -31.076  0.00  0.00    +0.156 C 
BRANCH  11  12
ATOM     12  N   ASP A   1      -6.287 -13.305 -30.836  0.00  0.00    -0.238 NA
ATOM     13  H   ASP A   1      -6.450 -12.568 -31.551  0.00  0.00    +0.142 HD
ENDBRANCH  11  12
BRANCH  11  14
ATOM     14  CB  ASP A   1      -4.236 -14.274 -29.950  0.00  0.00    +0.140 C 
BRANCH  14  15
ATOM     15  CG  ASP A   1      -3.043 -13.461 -30.281  0.00  0.00    +0.367 C 
ATOM     16  OD2 ASP A   1      -2.038 -13.705 -29.577  0.00  0.00    -0.246 OA
ATOM     17  OD1 ASP A   1      -3.089 -12.636 -31.225  0.00  0.00    -0.246 OA
ENDBRANCH  14  15
ENDBRANCH  11  14
ENDBRANCH   7  11
ENDBRANCH   6   8
BRANCH   6  18
ATOM     18  CB  THR A   2      -8.423 -17.637 -30.169  0.00  0.00    +0.137 C 
ATOM     19  CG2 THR A   2      -7.667 -17.601 -28.871  0.00  0.00    +0.034 C 
BRANCH  18  20
ATOM     20  OG1 THR A   2      -9.492 -16.690 -30.112  0.00  0.00    -0.382 OA
ATOM     21  HG1 THR A   2     -10.081 -16.905 -29.346  0.00  0.00    +0.210 HD
ENDBRANCH  18  20
ENDBRANCH   6  18
ENDBRANCH   2   6
ENDBRANCH   1   4
BRANCH   1  22
ATOM     22  C   GLN A   3      -9.146 -15.827 -35.558  0.00  0.00    +0.241 C 
ATOM     23  O   GLN A   3      -9.215 -14.610 -35.410  0.00  0.00    -0.273 OA
ATOM     24  N   TYR A   4      -8.623 -16.429 -36.621  0.00  0.00    -0.298 N 
ATOM     25  H   TYR A   4      -8.572 -17.468 -36.617  0.00  0.00    +0.150 HD
BRANCH  24  26
ATOM     26  CA  TYR A   4      -8.120 -15.731 -37.784  0.00  0.00    +0.141 C 
BRANCH  26  27
ATOM     27  C   TYR A   4      -9.020 -16.109 -38.947  0.00  0.00    +0.227 C 
ATOM     28  O   TYR A   4      -9.105 -17.286 -39.322  0.00  0.00    -0.286 OA
ENDBRANCH  26  27
BRANCH  26  29
ATOM     29  CB  TYR A   4      -6.692 -16.174 -38.082  0.00  0.00    +0.054 C 
BRANCH  29  30
ATOM     30  CG  TYR A   4      -5.705 -15.715 -37.054  0.00  0.00    -0.020 A 
ATOM     31  CD2 TYR A   4      -5.492 -16.463 -35.893  0.00  0.00    -0.001 A 
ATOM     32  CE2 TYR A   4      -4.570 -16.041 -34.931  0.00  0.00    +0.036 A 
ATOM     33  CZ  TYR A   4      -3.883 -14.884 -35.127  0.00  0.00    +0.134 A 
ATOM     34  CE1 TYR A   4      -4.084 -14.103 -36.269  0.00  0.00    +0.036 A 
ATOM     35  CD1 TYR A   4      -5.010 -14.517 -37.219  0.00  0.00    -0.001 A 
BRANCH  33  36
ATOM     36  OH  TYR A   4      -2.968 -14.502 -34.174  0.00  0.00    -0.506 OA
ATOM     37  HH  TYR A   4      -2.069 -14.448 -34.584  0.00  0.00    +0.292 HD
ENDBRANCH  33  36
ENDBRANCH  29  30
ENDBRANCH  26  29
ENDBRANCH  24  26
ENDBRANCH   1  22
BRANCH   1  38
ATOM     38  CB  GLN A   3     -11.133 -16.519 -34.189  0.00  0.00    +0.039 C 
BRANCH  38  39
ATOM     39  CG  GLN A   3     -11.703 -17.380 -33.023  0.00  0.00    +0.087 C 
BRANCH  39  40
ATOM     40  CD  GLN A   3     -13.161 -17.081 -32.756  0.00  0.00    +0.219 C 
ATOM     41  OE1 GLN A   3     -13.627 -17.128 -31.610  0.00  0.00    -0.275 OA
ATOM     42  NE2 GLN A   3     -13.887 -16.739 -33.806  0.00  0.00    -0.329 N 
ATOM     43 HE21 GLN A   3     -14.891 -16.496 -33.687  0.00  0.00    +0.145 HD
ATOM     44 HE22 GLN A   3     -13.454 -16.713 -34.751  0.00  0.00    +0.145 HD
ENDBRANCH  39  40
ENDBRANCH  38  39
ENDBRANCH   1  38
TORSDOF 18
REMARK  Name = ../refined-set-2016/3own/3own_pocket.pdb
REMARK  277 active torsions:
REMARK  status: ('A' for Active; 'I' for Inactive)
REMARK    1  A    between atoms: _1  and  _3
REMARK    2  A    between atoms: _3  and  _4
REMARK    3  A    between atoms: _3  and  _6
REMARK    4  A    between atoms: _6  and  _7
REMARK    5  A    between atoms: _12  and  _13
REMARK    6  A    between atoms: _15  and  _17
REMARK    7  A    between atoms: _17  and  _18
REMARK    8  A    between atoms: _17  and  _20
REMARK    9  A    between atoms: _20  and  _21
REMARK   10  A    between atoms: _24  and  _26
REMARK   11  A    between atoms: _26  and  _27
REMARK   12  A    between atoms: _26  and  _29
REMARK   13  A    between atoms: _29  and  _30
REMARK   14  A    between atoms: _33  and  _35
REMARK   15  A    between atoms: _35  and  _36
REMARK   16  A    between atoms: _35  and  _38
REMARK   17  A    between atoms: _38  and  _39
REMARK   18  A    between atoms: _39  and  _40
REMARK   19  A    between atoms: _45  and  _47
REMARK   20  A    between atoms: _47  and  _48
REMARK   21  A    between atoms: _47  and  _50
REMARK   22  A    between atoms: _50  and  _51
REMARK   23  A    between atoms: _56  and  _57
REMARK   24  A    between atoms: _59  and  _61
REMARK   25  A    between atoms: _61  and  _62
REMARK   26  A    between atoms: _61  and  _64
REMARK   27  A    between atoms: _67  and  _69
REMARK   28  A    between atoms: _69  and  _70
REMARK   29  A    between atoms: _69  and  _72
REMARK   30  A    between atoms: _72  and  _73
REMARK   31  A    between atoms: _79  and  _81
REMARK   32  A    between atoms: _81  and  _82
REMARK   33  A    between atoms: _81  and  _84
REMARK   34  A    between atoms: _84  and  _85
REMARK   35  A    between atoms: _88  and  _90
REMARK   36  A    between atoms: _90  and  _91
REMARK   37  A    between atoms: _90  and  _93
REMARK   38  A    between atoms: _93  and  _94
REMARK   39  A    between atoms: _97  and  _99
REMARK   40  A    between atoms: _99  and  _100
REMARK   41  A    between atoms: _102  and  _104
REMARK   42  A    between atoms: _104  and  _105
REMARK   43  A    between atoms: _104  and  _107
REMARK   44  A    between atoms: _107  and  _108
REMARK   45  A    between atoms: _110  and  _112
REMARK   46  A    between atoms: _112  and  _113
REMARK   47  A    between atoms: _112  and  _115
REMARK   48  A    between atoms: _115  and  _116
REMARK   49  A    between atoms: _118  and  _120
REMARK   50  A    between atoms: _120  and  _121
REMARK   51  A    between atoms: _120  and  _123
REMARK   52  A    between atoms: _123  and  _124
REMARK   53  A    between atoms: _129  and  _131
REMARK   54  A    between atoms: _131  and  _132
REMARK   55  A    between atoms: _131  and  _134
REMARK   56  A    between atoms: _134  and  _135
REMARK   57  A    between atoms: _145  and  _147
REMARK   58  A    between atoms: _147  and  _148
REMARK   59  A    between atoms: _147  and  _150
REMARK   60  A    between atoms: _150  and  _151
REMARK   61  A    between atoms: _154  and  _156
REMARK   62  A    between atoms: _156  and  _157
REMARK   63  A    between atoms: _156  and  _159
REMARK   64  A    between atoms: _159  and  _160
REMARK   65  A    between atoms: _163  and  _165
REMARK   66  A    between atoms: _165  and  _166
REMARK   67  A    between atoms: _165  and  _168
REMARK   68  A    between atoms: _168  and  _169
REMARK   69  A    between atoms: _169  and  _170
REMARK   70  A    between atoms: _170  and  _171
REMARK   71  A    between atoms: _180  and  _182
REMARK   72  A    between atoms: _182  and  _183
REMARK   73  A    between atoms: _182  and  _185
REMARK   74  A    between atoms: _185  and  _186
REMARK   75  A    between atoms: _191  and  _192
REMARK   76  A    between atoms: _194  and  _196
REMARK   77  A    between atoms: _196  and  _197
REMARK   78  A    between atoms: _196  and  _199
REMARK   79  A    between atoms: _199  and  _200
REMARK   80  A    between atoms: _202  and  _204
REMARK   81  A    between atoms: _204  and  _205
REMARK   82  A    between atoms: _204  and  _207
REMARK   83  A    between atoms: _207  and  _208
REMARK   84  A    between atoms: _211  and  _213
REMARK   85  A    between atoms: _213  and  _214
REMARK   86  A    between atoms: _216  and  _218
REMARK   87  A    between atoms: _218  and  _219
REMARK   88  A    between atoms: _218  and  _221
REMARK   89  A    between atoms: _224  and  _226
REMARK   90  A    between atoms: _226  and  _227
REMARK   91  A    between atoms: _226  and  _229
REMARK   92  A    between atoms: _229  and  _230
REMARK   93  A    between atoms: _230  and  _231
REMARK   94  A    between atoms: _233  and  _235
REMARK   95  A    between atoms: _235  and  _236
REMARK   96  A    between atoms: _239  and  _241
REMARK   97  A    between atoms: _241  and  _242
REMARK   98  A    between atoms: _241  and  _244
REMARK   99  A    between atoms: _244  and  _245
REMARK  100  A    between atoms: _249  and  _250
REMARK  101  A    between atoms: _255  and  _257
REMARK  102  A    between atoms: _257  and  _258
REMARK  103  A    between atoms: _257  and  _260
REMARK  104  A    between atoms: _260  and  _261
REMARK  105  A    between atoms: _267  and  _269
REMARK  106  A    between atoms: _269  and  _270
REMARK  107  A    between atoms: _269  and  _272
REMARK  108  A    between atoms: _272  and  _273
REMARK  109  A    between atoms: _273  and  _274
REMARK  110  A    between atoms: _276  and  _278
REMARK  111  A    between atoms: _278  and  _279
REMARK  112  A    between atoms: _278  and  _281
REMARK  113  A    between atoms: _281  and  _282
REMARK  114  A    between atoms: _285  and  _287
REMARK  115  A    between atoms: _287  and  _288
REMARK  116  A    between atoms: _291  and  _293
REMARK  117  A    between atoms: _293  and  _294
REMARK  118  A    between atoms: _293  and  _296
REMARK  119  A    between atoms: _296  and  _297
REMARK  120  A    between atoms: _297  and  _298
REMARK  121  A    between atoms: _301  and  _303
REMARK  122  A    between atoms: _303  and  _304
REMARK  123  A    between atoms: _303  and  _306
REMARK  124  A    between atoms: _306  and  _307
REMARK  125  A    between atoms: _313  and  _315
REMARK  126  A    between atoms: _315  and  _316
REMARK  127  A    between atoms: _315  and  _318
REMARK  128  A    between atoms: _318  and  _319
REMARK  129  A    between atoms: _322  and  _324
REMARK  130  A    between atoms: _324  and  _325
REMARK  131  A    between atoms: _327  and  _329
REMARK  132  A    between atoms: _329  and  _330
REMARK  133  A    between atoms: _329  and  _332
REMARK  134  A    between atoms: _335  and  _337
REMARK  135  A    between atoms: _337  and  _338
REMARK  136  A    between atoms: _337  and  _340
REMARK  137  A    between atoms: _343  and  _345
REMARK  138  A    between atoms: _345  and  _346
REMARK  139  A    between atoms: _345  and  _348
REMARK  140  A    between atoms: _348  and  _349
REMARK  141  A    between atoms: _349  and  _350
REMARK  142  A    between atoms: _352  and  _354
REMARK  143  A    between atoms: _354  and  _355
REMARK  144  A    between atoms: _357  and  _359
REMARK  145  A    between atoms: _359  and  _360
REMARK  146  A    between atoms: _359  and  _362
REMARK  147  A    between atoms: _362  and  _363
REMARK  148  A    between atoms: _369  and  _371
REMARK  149  A    between atoms: _371  and  _372
REMARK  150  A    between atoms: _371  and  _374
REMARK  151  A    between atoms: _374  and  _375
REMARK  152  A    between atoms: _375  and  _376
REMARK  153  A    between atoms: _379  and  _381
REMARK  154  A    between atoms: _381  and  _382
REMARK  155  A    between atoms: _381  and  _384
REMARK  156  A    between atoms: _384  and  _385
REMARK  157  A    between atoms: _385  and  _386
REMARK  158  A    between atoms: _391  and  _393
REMARK  159  A    between atoms: _393  and  _394
REMARK  160  A    between atoms: _397  and  _399
REMARK  161  A    between atoms: _399  and  _400
REMARK  162  A    between atoms: _399  and  _402
REMARK  163  A    between atoms: _402  and  _403
REMARK  164  A    between atoms: _406  and  _408
REMARK  165  A    between atoms: _408  and  _409
REMARK  166  A    between atoms: _411  and  _413
REMARK  167  A    between atoms: _413  and  _414
REMARK  168  A    between atoms: _413  and  _416
REMARK  169  A    between atoms: _419  and  _421
REMARK  170  A    between atoms: _421  and  _422
REMARK  171  A    between atoms: _421  and  _424
REMARK  172  A    between atoms: _424  and  _425
REMARK  173  A    between atoms: _425  and  _426
REMARK  174  A    between atoms: _431  and  _433
REMARK  175  A    between atoms: _433  and  _434
REMARK  176  A    between atoms: _433  and  _436
REMARK  177  A    between atoms: _436  and  _437
REMARK  178  A    between atoms: _440  and  _442
REMARK  179  A    between atoms: _442  and  _443
REMARK  180  A    between atoms: _442  and  _445
REMARK  181  A    between atoms: _448  and  _450
REMARK  182  A    between atoms: _450  and  _451
REMARK  183  A    between atoms: _450  and  _453
REMARK  184  A    between atoms: _453  and  _454
REMARK  185  A    between atoms: _457  and  _459
REMARK  186  A    between atoms: _459  and  _460
REMARK  187  A    between atoms: _459  and  _462
REMARK  188  A    between atoms: _462  and  _463
REMARK  189  A    between atoms: _466  and  _468
REMARK  190  A    between atoms: _468  and  _469
REMARK  191  A    between atoms: _471  and  _473
REMARK  192  A    between atoms: _473  and  _474
REMARK  193  A    between atoms: _477  and  _479
REMARK  194  A    between atoms: _479  and  _480
REMARK  195  A    between atoms: _479  and  _482
REMARK  196  A    between atoms: _482  and  _483
REMARK  197  A    between atoms: _485  and  _487
REMARK  198  A    between atoms: _487  and  _488
REMARK  199  A    between atoms: _487  and  _490
REMARK  200  A    between atoms: _490  and  _491
REMARK  201  A    between atoms: _496  and  _497
REMARK  202  A    between atoms: _499  and  _501
REMARK  203  A    between atoms: _501  and  _502
REMARK  204  A    between atoms: _501  and  _504
REMARK  205  A    between atoms: _504  and  _505
REMARK  206  A    between atoms: _508  and  _510
REMARK  207  A    between atoms: _510  and  _511
REMARK  208  A    between atoms: _510  and  _513
REMARK  209  A    between atoms: _513  and  _514
REMARK  210  A    between atoms: _516  and  _518
REMARK  211  A    between atoms: _518  and  _519
REMARK  212  A    between atoms: _521  and  _523
REMARK  213  A    between atoms: _523  and  _524
REMARK  214  A    between atoms: _523  and  _526
REMARK  215  A    between atoms: _526  and  _527
REMARK  216  A    between atoms: _533  and  _535
REMARK  217  A    between atoms: _535  and  _536
REMARK  218  A    between atoms: _535  and  _538
REMARK  219  A    between atoms: _538  and  _539
REMARK  220  A    between atoms: _542  and  _544
REMARK  221  A    between atoms: _544  and  _545
REMARK  222  A    between atoms: _548  and  _550
REMARK  223  A    between atoms: _550  and  _551
REMARK  224  A    between atoms: _550  and  _553
REMARK  225  A    between atoms: _553  and  _554
REMARK  226  A    between atoms: _557  and  _559
REMARK  227  A    between atoms: _559  and  _560
REMARK  228  A    between atoms: _559  and  _562
REMARK  229  A    between atoms: _562  and  _563
REMARK  230  A    between atoms: _568  and  _570
REMARK  231  A    between atoms: _570  and  _571
REMARK  232  A    between atoms: _574  and  _576
REMARK  233  A    between atoms: _576  and  _577
REMARK  234  A    between atoms: _576  and  _579
REMARK  235  A    between atoms: _579  and  _580
REMARK  236  A    between atoms: _580  and  _581
REMARK  237  A    between atoms: _583  and  _585
REMARK  238  A    between atoms: _585  and  _586
REMARK  239  A    between atoms: _585  and  _588
REMARK  240  A    between atoms: _588  and  _589
REMARK  241  A    between atoms: _592  and  _594
REMARK  242  A    between atoms: _594  and  _595
REMARK  243  A    between atoms: _594  and  _597
REMARK  244  A    between atoms: _597  and  _598
REMARK  245  A    between atoms: _602  and  _603
REMARK  246  A    between atoms: _608  and  _610
REMARK  247  A    between atoms: _610  and  _611
REMARK  248  A    between atoms: _610  and  _613
REMARK  249  A    between atoms: _613  and  _614
REMARK  250  A    between atoms: _617  and  _619
REMARK  251  A    between atoms: _619  and  _620
REMARK  252  A    between atoms: _622  and  _624
REMARK  253  A    between atoms: _624  and  _625
REMARK  254  A    between atoms: _624  and  _627
REMARK  255  A    between atoms: _627  and  _628
REMARK  256  A    between atoms: _631  and  _633
REMARK  257  A    between atoms: _633  and  _634
REMARK  258  A    between atoms: _633  and  _636
REMARK  259  A    between atoms: _636  and  _637
REMARK  260  A    between atoms: _647  and  _649
REMARK  261  A    between atoms: _649  and  _650
REMARK  262  A    between atoms: _653  and  _655
REMARK  263  A    between atoms: _655  and  _656
REMARK  264  A    between atoms: _655  and  _658
REMARK  265  A    between atoms: _658  and  _659
REMARK  266  A    between atoms: _662  and  _664
REMARK  267  A    between atoms: _664  and  _665
REMARK  268  A    between atoms: _667  and  _669
REMARK  269  A    between atoms: _669  and  _670
REMARK  270  A    between atoms: _673  and  _675
REMARK  271  A    between atoms: _675  and  _676
REMARK  272  A    between atoms: _675  and  _678
REMARK  273  A    between atoms: _678  and  _679
REMARK  274  A    between atoms: _682  and  _684
REMARK  275  A    between atoms: _684  and  _685
REMARK  276  A    between atoms: _684  and  _687
REMARK  277  A    between atoms: _687  and  _688
REMARK                            x       y       z     vdW  Elec       q    Type
REMARK                         _______ _______ _______ _____ _____    ______ ____
ROOT
ATOM      1  CA  THR A   4      -5.307 -26.737 -43.876  0.00  0.00    +0.176 C 
ENDROOT
BRANCH   1   3
ATOM      2  C   ASP A   3      -7.434 -25.620 -43.445  0.00  0.00    +0.241 C 
ATOM      3  N   THR A   4      -6.118 -25.695 -43.218  0.00  0.00    -0.295 N 
ATOM      4  H   THR A   4      -5.664 -25.015 -42.575  0.00  0.00    +0.150 HD
ATOM      5  O   ASP A   3      -8.008 -26.324 -44.277  0.00  0.00    -0.273 OA
BRANCH   2   6
ATOM      6  CA  ASP A   3      -8.233 -24.576 -42.641  0.00  0.00    +0.160 C 
BRANCH   6   9
ATOM      7  C   PHE A   2      -8.219 -22.165 -43.218  0.00  0.00    +0.241 C 
ATOM      8  O   PHE A   2      -7.274 -21.871 -42.469  0.00  0.00    -0.273 OA
ATOM      9  N   ASP A   3      -8.612 -23.418 -43.471  0.00  0.00    -0.297 N 
ATOM     10  H   ASP A   3      -9.219 -23.585 -44.299  0.00  0.00    +0.150 HD
BRANCH   7  11
ATOM     11  CA  PHE A   2      -9.029 -21.072 -43.934  0.00  0.00    +0.153 C 
BRANCH  11  13
ATOM     12  C   VAL A   1     -10.949 -20.487 -42.553  0.00  0.00    +0.238 C 
ATOM     13  N   PHE A   2      -9.680 -20.277 -42.872  0.00  0.00    -0.297 N 
ATOM     14  H   PHE A   2      -9.137 -19.546 -42.370  0.00  0.00    +0.150 HD
ATOM     15  O   VAL A   1     -11.666 -21.281 -43.171  0.00  0.00    -0.274 OA
BRANCH  12  16
ATOM     16  CA  VAL A   1     -11.499 -19.683 -41.375  0.00  0.00    +0.145 C 
BRANCH  16  17
ATOM     17  CB  VAL A   1     -11.460 -20.530 -40.098  0.00  0.00    +0.025 C 
ATOM     18  CG2 VAL A   1     -11.785 -19.645 -38.970  0.00  0.00    +0.002 C 
ATOM     19  CG1 VAL A   1     -10.074 -21.202 -39.825  0.00  0.00    +0.002 C 
ENDBRANCH  16  17
BRANCH  16  20
ATOM     20  N   VAL A   1     -12.872 -19.314 -41.734  0.00  0.00    -0.238 NA
ATOM     21  H   VAL A   1     -13.660 -19.942 -41.477  0.00  0.00    +0.142 HD
ENDBRANCH  16  20
ENDBRANCH  12  16
ENDBRANCH  11  13
BRANCH  11  22
ATOM     22  CB  PHE A   2      -8.160 -20.154 -44.799  0.00  0.00    +0.055 C 
BRANCH  22  23
ATOM     23  CG  PHE A   2      -8.971 -19.105 -45.556  0.00  0.00    -0.020 A 
ATOM     24  CD2 PHE A   2      -9.334 -17.898 -44.962  0.00  0.00    -0.004 A 
ATOM     25  CE2 PHE A   2     -10.090 -16.935 -45.660  0.00  0.00    -0.000 A 
ATOM     26  CZ  PHE A   2     -10.476 -17.194 -46.963  0.00  0.00    -0.000 A 
ATOM     27  CE1 PHE A   2     -10.138 -18.380 -47.550  0.00  0.00    -0.000 A 
ATOM     28  CD1 PHE A   2      -9.375 -19.345 -46.849  0.00  0.00    -0.004 A 
ENDBRANCH  22  23
ENDBRANCH  11  22
ENDBRANCH   7  11
ENDBRANCH   6   9
BRANCH   6  29
ATOM     29  CB  ASP A   3      -9.521 -25.217 -42.086  0.00  0.00    +0.143 C 
BRANCH  29  30
ATOM     30  CG  ASP A   3      -9.249 -26.478 -41.263  0.00  0.00    +0.367 C 
ATOM     31  OD2 ASP A   3      -8.144 -26.629 -40.724  0.00  0.00    -0.246 OA
ATOM     32  OD1 ASP A   3     -10.127 -27.340 -41.181  0.00  0.00    -0.246 OA
ENDBRANCH  29  30
ENDBRANCH   6  29
ENDBRANCH   2   6
ENDBRANCH   1   3
BRANCH   1  33
ATOM     33  C   THR A   4      -5.569 -28.134 -43.311  0.00  0.00    +0.243 C 
ATOM     34  N   GLY A   5      -6.268 -28.206 -42.166  0.00  0.00    -0.295 N 
ATOM     35  H   GLY A   5      -6.573 -27.336 -41.685  0.00  0.00    +0.150 HD
ATOM     36  O   THR A   4      -5.182 -29.144 -43.931  0.00  0.00    -0.273 OA
BRANCH  34  37
ATOM     37  CA  GLY A   5      -6.596 -29.504 -41.602  0.00  0.00    +0.176 C 
BRANCH  37  38
ATOM     38  C   GLY A   5      -7.817 -30.167 -42.234  0.00  0.00    +0.243 C 
ATOM     39  O   GLY A   5      -8.138 -31.304 -41.909  0.00  0.00    -0.273 OA
ATOM     40  N   SER A   6      -8.486 -29.488 -43.162  0.00  0.00    -0.295 N 
ATOM     41  H   SER A   6      -8.179 -28.523 -43.401  0.00  0.00    +0.150 HD
BRANCH  40  42
ATOM     42  CA  SER A   6      -9.650 -30.064 -43.861  0.00  0.00    +0.178 C 
BRANCH  42  43
ATOM     43  C   SER A   6      -9.709 -29.534 -45.298  0.00  0.00    +0.243 C 
ATOM     44  O   SER A   6      -8.922 -28.648 -45.675  0.00  0.00    -0.273 OA
ATOM     45  N   SER A   7     -10.655 -30.047 -46.090  0.00  0.00    -0.295 N 
ATOM     46  H   SER A   7     -11.389 -30.653 -45.671  0.00  0.00    +0.150 HD
BRANCH  45  47
ATOM     47  CA  SER A   7     -10.689 -29.782 -47.532  0.00  0.00    +0.178 C 
BRANCH  47  48
ATOM     48  C   SER A   7     -12.050 -29.399 -48.103  0.00  0.00    +0.243 C 
ATOM     49  N   ASN A   8     -13.031 -29.193 -47.236  0.00  0.00    -0.298 N 
ATOM     50  H   ASN A   8     -12.849 -29.284 -46.216  0.00  0.00    +0.150 HD
ATOM     51  O   SER A   7     -12.224 -29.289 -49.333  0.00  0.00    -0.273 OA
BRANCH  49  52
ATOM     52  CA  ASN A   8     -14.374 -28.836 -47.711  0.00  0.00    +0.146 C 
BRANCH  52  53
ATOM     53  C   ASN A   8     -14.667 -27.381 -47.384  0.00  0.00    +0.227 C 
ATOM     54  O   ASN A   8     -14.211 -26.877 -46.356  0.00  0.00    -0.286 OA
ENDBRANCH  52  53
BRANCH  52  55
ATOM     55  CB  ASN A   8     -15.440 -29.687 -47.004  0.00  0.00    +0.112 C 
BRANCH  55  56
ATOM     56  CG  ASN A   8     -15.460 -31.120 -47.462  0.00  0.00    +0.222 C 
ATOM     57  OD1 ASN A   8     -14.622 -31.912 -47.047  0.00  0.00    -0.275 OA
ATOM     58  ND2 ASN A   8     -16.454 -31.477 -48.271  0.00  0.00    -0.329 N 
ATOM     59 HD21 ASN A   8     -16.544 -32.466 -48.578  0.00  0.00    +0.145 HD
ATOM     60 HD22 ASN A   8     -17.141 -30.767 -48.596  0.00  0.00    +0.145 HD
ENDBRANCH  55  56
ENDBRANCH  52  55
ENDBRANCH  49  52
ENDBRANCH  47  48
BRANCH  47  61
ATOM     61  CB  SER A   7     -10.142 -31.007 -48.274  0.00  0.00    +0.166 C 
BRANCH  61  62
ATOM     62  OG  SER A   7      -8.984 -31.507 -47.601  0.00  0.00    -0.380 OA
ATOM     63  H   SER A   7      -8.637 -32.297 -48.086  0.00  0.00    +0.211 HD
ENDBRANCH  61  62
ENDBRANCH  47  61
ENDBRANCH  45  47
ENDBRANCH  42  43
BRANCH  42  64
ATOM     64  CB  SER A   6     -10.967 -29.769 -43.093  0.00  0.00    +0.166 C 
BRANCH  64  65
ATOM     65  OG  SER A   6     -11.257 -28.368 -43.165  0.00  0.00    -0.380 OA
ATOM     66  H   SER A   6     -10.514 -27.857 -42.756  0.00  0.00    +0.211 HD
ENDBRANCH  64  65
ENDBRANCH  42  64
ENDBRANCH  40  42
ENDBRANCH  37  38
ENDBRANCH  34  37
ENDBRANCH   1  33
BRANCH   1  67
ATOM     67  CB  THR A   4      -3.795 -26.391 -43.781  0.00  0.00    +0.137 C 
ATOM     68  CG2 THR A   4      -3.505 -25.150 -44.671  0.00  0.00    +0.034 C 
BRANCH  67  69
ATOM     69  OG1 THR A   4      -3.457 -26.113 -42.405  0.00  0.00    -0.382 OA
ATOM     70  HG1 THR A   4      -3.651 -26.910 -41.851  0.00  0.00    +0.210 HD
ENDBRANCH  67  69
ENDBRANCH   1  67
TORSDOF 29
REMARK  Name = ../refined-set-2016/3own/3own_pocket.pdb
REMARK  277 active torsions:
REMARK  status: ('A' for Active; 'I' for Inactive)
REMARK    1  A    between atoms: _1  and  _3
REMARK    2  A    between atoms: _3  and  _4
REMARK    3  A    between atoms: _3  and  _6
REMARK    4  A    between atoms: _6  and  _7
REMARK    5  A    between atoms: _12  and  _13
REMARK    6  A    between atoms: _15  and  _17
REMARK    7  A    between atoms: _17  and  _18
REMARK    8  A    between atoms: _17  and  _20
REMARK    9  A    between atoms: _20  and  _21
REMARK   10  A    between atoms: _24  and  _26
REMARK   11  A    between atoms: _26  and  _27
REMARK   12  A    between atoms: _26  and  _29
REMARK   13  A    between atoms: _29  and  _30
REMARK   14  A    between atoms: _33  and  _35
REMARK   15  A    between atoms: _35  and  _36
REMARK   16  A    between atoms: _35  and  _38
REMARK   17  A    between atoms: _38  and  _39
REMARK   18  A    between atoms: _39  and  _40
REMARK   19  A    between atoms: _45  and  _47
REMARK   20  A    between atoms: _47  and  _48
REMARK   21  A    between atoms: _47  and  _50
REMARK   22  A    between atoms: _50  and  _51
REMARK   23  A    between atoms: _56  and  _57
REMARK   24  A    between atoms: _59  and  _61
REMARK   25  A    between atoms: _61  and  _62
REMARK   26  A    between atoms: _61  and  _64
REMARK   27  A    between atoms: _67  and  _69
REMARK   28  A    between atoms: _69  and  _70
REMARK   29  A    between atoms: _69  and  _72
REMARK   30  A    between atoms: _72  and  _73
REMARK   31  A    between atoms: _79  and  _81
REMARK   32  A    between atoms: _81  and  _82
REMARK   33  A    between atoms: _81  and  _84
REMARK   34  A    between atoms: _84  and  _85
REMARK   35  A    between atoms: _88  and  _90
REMARK   36  A    between atoms: _90  and  _91
REMARK   37  A    between atoms: _90  and  _93
REMARK   38  A    between atoms: _93  and  _94
REMARK   39  A    between atoms: _97  and  _99
REMARK   40  A    between atoms: _99  and  _100
REMARK   41  A    between atoms: _102  and  _104
REMARK   42  A    between atoms: _104  and  _105
REMARK   43  A    between atoms: _104  and  _107
REMARK   44  A    between atoms: _107  and  _108
REMARK   45  A    between atoms: _110  and  _112
REMARK   46  A    between atoms: _112  and  _113
REMARK   47  A    between atoms: _112  and  _115
REMARK   48  A    between atoms: _115  and  _116
REMARK   49  A    between atoms: _118  and  _120
REMARK   50  A    between atoms: _120  and  _121
REMARK   51  A    between atoms: _120  and  _123
REMARK   52  A    between atoms: _123  and  _124
REMARK   53  A    between atoms: _129  and  _131
REMARK   54  A    between atoms: _131  and  _132
REMARK   55  A    between atoms: _131  and  _134
REMARK   56  A    between atoms: _134  and  _135
REMARK   57  A    between atoms: _145  and  _147
REMARK   58  A    between atoms: _147  and  _148
REMARK   59  A    between atoms: _147  and  _150
REMARK   60  A    between atoms: _150  and  _151
REMARK   61  A    between atoms: _154  and  _156
REMARK   62  A    between atoms: _156  and  _157
REMARK   63  A    between atoms: _156  and  _159
REMARK   64  A    between atoms: _159  and  _160
REMARK   65  A    between atoms: _163  and  _165
REMARK   66  A    between atoms: _165  and  _166
REMARK   67  A    between atoms: _165  and  _168
REMARK   68  A    between atoms: _168  and  _169
REMARK   69  A    between atoms: _169  and  _170
REMARK   70  A    between atoms: _170  and  _171
REMARK   71  A    between atoms: _180  and  _182
REMARK   72  A    between atoms: _182  and  _183
REMARK   73  A    between atoms: _182  and  _185
REMARK   74  A    between atoms: _185  and  _186
REMARK   75  A    between atoms: _191  and  _192
REMARK   76  A    between atoms: _194  and  _196
REMARK   77  A    between atoms: _196  and  _197
REMARK   78  A    between atoms: _196  and  _199
REMARK   79  A    between atoms: _199  and  _200
REMARK   80  A    between atoms: _202  and  _204
REMARK   81  A    between atoms: _204  and  _205
REMARK   82  A    between atoms: _204  and  _207
REMARK   83  A    between atoms: _207  and  _208
REMARK   84  A    between atoms: _211  and  _213
REMARK   85  A    between atoms: _213  and  _214
REMARK   86  A    between atoms: _216  and  _218
REMARK   87  A    between atoms: _218  and  _219
REMARK   88  A    between atoms: _218  and  _221
REMARK   89  A    between atoms: _224  and  _226
REMARK   90  A    between atoms: _226  and  _227
REMARK   91  A    between atoms: _226  and  _229
REMARK   92  A    between atoms: _229  and  _230
REMARK   93  A    between atoms: _230  and  _231
REMARK   94  A    between atoms: _233  and  _235
REMARK   95  A    between atoms: _235  and  _236
REMARK   96  A    between atoms: _239  and  _241
REMARK   97  A    between atoms: _241  and  _242
REMARK   98  A    between atoms: _241  and  _244
REMARK   99  A    between atoms: _244  and  _245
REMARK  100  A    between atoms: _249  and  _250
REMARK  101  A    between atoms: _255  and  _257
REMARK  102  A    between atoms: _257  and  _258
REMARK  103  A    between atoms: _257  and  _260
REMARK  104  A    between atoms: _260  and  _261
REMARK  105  A    between atoms: _267  and  _269
REMARK  106  A    between atoms: _269  and  _270
REMARK  107  A    between atoms: _269  and  _272
REMARK  108  A    between atoms: _272  and  _273
REMARK  109  A    between atoms: _273  and  _274
REMARK  110  A    between atoms: _276  and  _278
REMARK  111  A    between atoms: _278  and  _279
REMARK  112  A    between atoms: _278  and  _281
REMARK  113  A    between atoms: _281  and  _282
REMARK  114  A    between atoms: _285  and  _287
REMARK  115  A    between atoms: _287  and  _288
REMARK  116  A    between atoms: _291  and  _293
REMARK  117  A    between atoms: _293  and  _294
REMARK  118  A    between atoms: _293  and  _296
REMARK  119  A    between atoms: _296  and  _297
REMARK  120  A    between atoms: _297  and  _298
REMARK  121  A    between atoms: _301  and  _303
REMARK  122  A    between atoms: _303  and  _304
REMARK  123  A    between atoms: _303  and  _306
REMARK  124  A    between atoms: _306  and  _307
REMARK  125  A    between atoms: _313  and  _315
REMARK  126  A    between atoms: _315  and  _316
REMARK  127  A    between atoms: _315  and  _318
REMARK  128  A    between atoms: _318  and  _319
REMARK  129  A    between atoms: _322  and  _324
REMARK  130  A    between atoms: _324  and  _325
REMARK  131  A    between atoms: _327  and  _329
REMARK  132  A    between atoms: _329  and  _330
REMARK  133  A    between atoms: _329  and  _332
REMARK  134  A    between atoms: _335  and  _337
REMARK  135  A    between atoms: _337  and  _338
REMARK  136  A    between atoms: _337  and  _340
REMARK  137  A    between atoms: _343  and  _345
REMARK  138  A    between atoms: _345  and  _346
REMARK  139  A    between atoms: _345  and  _348
REMARK  140  A    between atoms: _348  and  _349
REMARK  141  A    between atoms: _349  and  _350
REMARK  142  A    between atoms: _352  and  _354
REMARK  143  A    between atoms: _354  and  _355
REMARK  144  A    between atoms: _357  and  _359
REMARK  145  A    between atoms: _359  and  _360
REMARK  146  A    between atoms: _359  and  _362
REMARK  147  A    between atoms: _362  and  _363
REMARK  148  A    between atoms: _369  and  _371
REMARK  149  A    between atoms: _371  and  _372
REMARK  150  A    between atoms: _371  and  _374
REMARK  151  A    between atoms: _374  and  _375
REMARK  152  A    between atoms: _375  and  _376
REMARK  153  A    between atoms: _379  and  _381
REMARK  154  A    between atoms: _381  and  _382
REMARK  155  A    between atoms: _381  and  _384
REMARK  156  A    between atoms: _384  and  _385
REMARK  157  A    between atoms: _385  and  _386
REMARK  158  A    between atoms: _391  and  _393
REMARK  159  A    between atoms: _393  and  _394
REMARK  160  A    between atoms: _397  and  _399
REMARK  161  A    between atoms: _399  and  _400
REMARK  162  A    between atoms: _399  and  _402
REMARK  163  A    between atoms: _402  and  _403
REMARK  164  A    between atoms: _406  and  _408
REMARK  165  A    between atoms: _408  and  _409
REMARK  166  A    between atoms: _411  and  _413
REMARK  167  A    between atoms: _413  and  _414
REMARK  168  A    between atoms: _413  and  _416
REMARK  169  A    between atoms: _419  and  _421
REMARK  170  A    between atoms: _421  and  _422
REMARK  171  A    between atoms: _421  and  _424
REMARK  172  A    between atoms: _424  and  _425
REMARK  173  A    between atoms: _425  and  _426
REMARK  174  A    between atoms: _431  and  _433
REMARK  175  A    between atoms: _433  and  _434
REMARK  176  A    between atoms: _433  and  _436
REMARK  177  A    between atoms: _436  and  _437
REMARK  178  A    between atoms: _440  and  _442
REMARK  179  A    between atoms: _442  and  _443
REMARK  180  A    between atoms: _442  and  _445
REMARK  181  A    between atoms: _448  and  _450
REMARK  182  A    between atoms: _450  and  _451
REMARK  183  A    between atoms: _450  and  _453
REMARK  184  A    between atoms: _453  and  _454
REMARK  185  A    between atoms: _457  and  _459
REMARK  186  A    between atoms: _459  and  _460
REMARK  187  A    between atoms: _459  and  _462
REMARK  188  A    between atoms: _462  and  _463
REMARK  189  A    between atoms: _466  and  _468
REMARK  190  A    between atoms: _468  and  _469
REMARK  191  A    between atoms: _471  and  _473
REMARK  192  A    between atoms: _473  and  _474
REMARK  193  A    between atoms: _477  and  _479
REMARK  194  A    between atoms: _479  and  _480
REMARK  195  A    between atoms: _479  and  _482
REMARK  196  A    between atoms: _482  and  _483
REMARK  197  A    between atoms: _485  and  _487
REMARK  198  A    between atoms: _487  and  _488
REMARK  199  A    between atoms: _487  and  _490
REMARK  200  A    between atoms: _490  and  _491
REMARK  201  A    between atoms: _496  and  _497
REMARK  202  A    between atoms: _499  and  _501
REMARK  203  A    between atoms: _501  and  _502
REMARK  204  A    between atoms: _501  and  _504
REMARK  205  A    between atoms: _504  and  _505
REMARK  206  A    between atoms: _508  and  _510
REMARK  207  A    between atoms: _510  and  _511
REMARK  208  A    between atoms: _510  and  _513
REMARK  209  A    between atoms: _513  and  _514
REMARK  210  A    between atoms: _516  and  _518
REMARK  211  A    between atoms: _518  and  _519
REMARK  212  A    between atoms: _521  and  _523
REMARK  213  A    between atoms: _523  and  _524
REMARK  214  A    between atoms: _523  and  _526
REMARK  215  A    between atoms: _526  and  _527
REMARK  216  A    between atoms: _533  and  _535
REMARK  217  A    between atoms: _535  and  _536
REMARK  218  A    between atoms: _535  and  _538
REMARK  219  A    between atoms: _538  and  _539
REMARK  220  A    between atoms: _542  and  _544
REMARK  221  A    between atoms: _544  and  _545
REMARK  222  A    between atoms: _548  and  _550
REMARK  223  A    between atoms: _550  and  _551
REMARK  224  A    between atoms: _550  and  _553
REMARK  225  A    between atoms: _553  and  _554
REMARK  226  A    between atoms: _557  and  _559
REMARK  227  A    between atoms: _559  and  _560
REMARK  228  A    between atoms: _559  and  _562
REMARK  229  A    between atoms: _562  and  _563
REMARK  230  A    between atoms: _568  and  _570
REMARK  231  A    between atoms: _570  and  _571
REMARK  232  A    between atoms: _574  and  _576
REMARK  233  A    between atoms: _576  and  _577
REMARK  234  A    between atoms: _576  and  _579
REMARK  235  A    between atoms: _579  and  _580
REMARK  236  A    between atoms: _580  and  _581
REMARK  237  A    between atoms: _583  and  _585
REMARK  238  A    between atoms: _585  and  _586
REMARK  239  A    between atoms: _585  and  _588
REMARK  240  A    between atoms: _588  and  _589
REMARK  241  A    between atoms: _592  and  _594
REMARK  242  A    between atoms: _594  and  _595
REMARK  243  A    between atoms: _594  and  _597
REMARK  244  A    between atoms: _597  and  _598
REMARK  245  A    between atoms: _602  and  _603
REMARK  246  A    between atoms: _608  and  _610
REMARK  247  A    between atoms: _610  and  _611
REMARK  248  A    between atoms: _610  and  _613
REMARK  249  A    between atoms: _613  and  _614
REMARK  250  A    between atoms: _617  and  _619
REMARK  251  A    between atoms: _619  and  _620
REMARK  252  A    between atoms: _622  and  _624
REMARK  253  A    between atoms: _624  and  _625
REMARK  254  A    between atoms: _624  and  _627
REMARK  255  A    between atoms: _627  and  _628
REMARK  256  A    between atoms: _631  and  _633
REMARK  257  A    between atoms: _633  and  _634
REMARK  258  A    between atoms: _633  and  _636
REMARK  259  A    between atoms: _636  and  _637
REMARK  260  A    between atoms: _647  and  _649
REMARK  261  A    between atoms: _649  and  _650
REMARK  262  A    between atoms: _653  and  _655
REMARK  263  A    between atoms: _655  and  _656
REMARK  264  A    between atoms: _655  and  _658
REMARK  265  A    between atoms: _658  and  _659
REMARK  266  A    between atoms: _662  and  _664
REMARK  267  A    between atoms: _664  and  _665
REMARK  268  A    between atoms: _667  and  _669
REMARK  269  A    between atoms: _669  and  _670
REMARK  270  A    between atoms: _673  and  _675
REMARK  271  A    between atoms: _675  and  _676
REMARK  272  A    between atoms: _675  and  _678
REMARK  273  A    between atoms: _678  and  _679
REMARK  274  A    between atoms: _682  and  _684
REMARK  275  A    between atoms: _684  and  _685
REMARK  276  A    between atoms: _684  and  _687
REMARK  277  A    between atoms: _687  and  _688
REMARK                            x       y       z     vdW  Elec       q    Type
REMARK                         _______ _______ _______ _____ _____    ______ ____
ROOT
ATOM      1  CG  TRP A   1     -18.844 -25.887 -43.771  0.00  0.00    -0.002 A 
ATOM      2  CD2 TRP A   1     -19.267 -25.145 -42.597  0.00  0.00    +0.013 A 
ATOM      3  CE2 TRP A   1     -18.337 -25.428 -41.568  0.00  0.00    +0.056 A 
ATOM      4  CZ2 TRP A   1     -18.444 -24.879 -40.296  0.00  0.00    +0.017 A 
ATOM      5  CH2 TRP A   1     -19.517 -24.053 -40.051  0.00  0.00    +0.001 A 
ATOM      6  CZ3 TRP A   1     -20.482 -23.776 -41.044  0.00  0.00    +0.000 A 
ATOM      7  NE1 TRP A   1     -17.392 -26.273 -42.093  0.00  0.00    -0.352 N 
ATOM      8  HE1 TRP A   1     -16.576 -26.658 -41.575  0.00  0.00    +0.166 HD
ATOM      9  CE3 TRP A   1     -20.361 -24.300 -42.314  0.00  0.00    +0.001 A 
ATOM     10  CD1 TRP A   1     -17.690 -26.533 -43.411  0.00  0.00    +0.068 A 
ENDROOT
BRANCH   1  11
ATOM     11  CB  TRP A   1     -19.544 -25.930 -45.179  0.00  0.00    +0.053 C 
BRANCH  11  12
ATOM     12  CA  TRP A   1     -19.128 -24.791 -46.124  0.00  0.00    +0.137 C 
BRANCH  12  13
ATOM     13  N   TRP A   1     -17.715 -24.835 -46.481  0.00  0.00    -0.239 NA
ATOM     14  H   TRP A   1     -17.012 -24.325 -45.910  0.00  0.00    +0.142 HD
ENDBRANCH  12  13
BRANCH  12  15
ATOM     15  C   TRP A   1     -19.406 -23.452 -45.463  0.00  0.00    +0.224 C 
ATOM     16  O   TRP A   1     -18.523 -22.836 -44.833  0.00  0.00    -0.287 OA
ENDBRANCH  12  15
ENDBRANCH  11  12
ENDBRANCH   1  11
TORSDOF 4
REMARK  Name = ../refined-set-2016/3own/3own_pocket.pdb
REMARK  277 active torsions:
REMARK  status: ('A' for Active; 'I' for Inactive)
REMARK    1  A    between atoms: _1  and  _3
REMARK    2  A    between atoms: _3  and  _4
REMARK    3  A    between atoms: _3  and  _6
REMARK    4  A    between atoms: _6  and  _7
REMARK    5  A    between atoms: _12  and  _13
REMARK    6  A    between atoms: _15  and  _17
REMARK    7  A    between atoms: _17  and  _18
REMARK    8  A    between atoms: _17  and  _20
REMARK    9  A    between atoms: _20  and  _21
REMARK   10  A    between atoms: _24  and  _26
REMARK   11  A    between atoms: _26  and  _27
REMARK   12  A    between atoms: _26  and  _29
REMARK   13  A    between atoms: _29  and  _30
REMARK   14  A    between atoms: _33  and  _35
REMARK   15  A    between atoms: _35  and  _36
REMARK   16  A    between atoms: _35  and  _38
REMARK   17  A    between atoms: _38  and  _39
REMARK   18  A    between atoms: _39  and  _40
REMARK   19  A    between atoms: _45  and  _47
REMARK   20  A    between atoms: _47  and  _48
REMARK   21  A    between atoms: _47  and  _50
REMARK   22  A    between atoms: _50  and  _51
REMARK   23  A    between atoms: _56  and  _57
REMARK   24  A    between atoms: _59  and  _61
REMARK   25  A    between atoms: _61  and  _62
REMARK   26  A    between atoms: _61  and  _64
REMARK   27  A    between atoms: _67  and  _69
REMARK   28  A    between atoms: _69  and  _70
REMARK   29  A    between atoms: _69  and  _72
REMARK   30  A    between atoms: _72  and  _73
REMARK   31  A    between atoms: _79  and  _81
REMARK   32  A    between atoms: _81  and  _82
REMARK   33  A    between atoms: _81  and  _84
REMARK   34  A    between atoms: _84  and  _85
REMARK   35  A    between atoms: _88  and  _90
REMARK   36  A    between atoms: _90  and  _91
REMARK   37  A    between atoms: _90  and  _93
REMARK   38  A    between atoms: _93  and  _94
REMARK   39  A    between atoms: _97  and  _99
REMARK   40  A    between atoms: _99  and  _100
REMARK   41  A    between atoms: _102  and  _104
REMARK   42  A    between atoms: _104  and  _105
REMARK   43  A    between atoms: _104  and  _107
REMARK   44  A    between atoms: _107  and  _108
REMARK   45  A    between atoms: _110  and  _112
REMARK   46  A    between atoms: _112  and  _113
REMARK   47  A    between atoms: _112  and  _115
REMARK   48  A    between atoms: _115  and  _116
REMARK   49  A    between atoms: _118  and  _120
REMARK   50  A    between atoms: _120  and  _121
REMARK   51  A    between atoms: _120  and  _123
REMARK   52  A    between atoms: _123  and  _124
REMARK   53  A    between atoms: _129  and  _131
REMARK   54  A    between atoms: _131  and  _132
REMARK   55  A    between atoms: _131  and  _134
REMARK   56  A    between atoms: _134  and  _135
REMARK   57  A    between atoms: _145  and  _147
REMARK   58  A    between atoms: _147  and  _148
REMARK   59  A    between atoms: _147  and  _150
REMARK   60  A    between atoms: _150  and  _151
REMARK   61  A    between atoms: _154  and  _156
REMARK   62  A    between atoms: _156  and  _157
REMARK   63  A    between atoms: _156  and  _159
REMARK   64  A    between atoms: _159  and  _160
REMARK   65  A    between atoms: _163  and  _165
REMARK   66  A    between atoms: _165  and  _166
REMARK   67  A    between atoms: _165  and  _168
REMARK   68  A    between atoms: _168  and  _169
REMARK   69  A    between atoms: _169  and  _170
REMARK   70  A    between atoms: _170  and  _171
REMARK   71  A    between atoms: _180  and  _182
REMARK   72  A    between atoms: _182  and  _183
REMARK   73  A    between atoms: _182  and  _185
REMARK   74  A    between atoms: _185  and  _186
REMARK   75  A    between atoms: _191  and  _192
REMARK   76  A    between atoms: _194  and  _196
REMARK   77  A    between atoms: _196  and  _197
REMARK   78  A    between atoms: _196  and  _199
REMARK   79  A    between atoms: _199  and  _200
REMARK   80  A    between atoms: _202  and  _204
REMARK   81  A    between atoms: _204  and  _205
REMARK   82  A    between atoms: _204  and  _207
REMARK   83  A    between atoms: _207  and  _208
REMARK   84  A    between atoms: _211  and  _213
REMARK   85  A    between atoms: _213  and  _214
REMARK   86  A    between atoms: _216  and  _218
REMARK   87  A    between atoms: _218  and  _219
REMARK   88  A    between atoms: _218  and  _221
REMARK   89  A    between atoms: _224  and  _226
REMARK   90  A    between atoms: _226  and  _227
REMARK   91  A    between atoms: _226  and  _229
REMARK   92  A    between atoms: _229  and  _230
REMARK   93  A    between atoms: _230  and  _231
REMARK   94  A    between atoms: _233  and  _235
REMARK   95  A    between atoms: _235  and  _236
REMARK   96  A    between atoms: _239  and  _241
REMARK   97  A    between atoms: _241  and  _242
REMARK   98  A    between atoms: _241  and  _244
REMARK   99  A    between atoms: _244  and  _245
REMARK  100  A    between atoms: _249  and  _250
REMARK  101  A    between atoms: _255  and  _257
REMARK  102  A    between atoms: _257  and  _258
REMARK  103  A    between atoms: _257  and  _260
REMARK  104  A    between atoms: _260  and  _261
REMARK  105  A    between atoms: _267  and  _269
REMARK  106  A    between atoms: _269  and  _270
REMARK  107  A    between atoms: _269  and  _272
REMARK  108  A    between atoms: _272  and  _273
REMARK  109  A    between atoms: _273  and  _274
REMARK  110  A    between atoms: _276  and  _278
REMARK  111  A    between atoms: _278  and  _279
REMARK  112  A    between atoms: _278  and  _281
REMARK  113  A    between atoms: _281  and  _282
REMARK  114  A    between atoms: _285  and  _287
REMARK  115  A    between atoms: _287  and  _288
REMARK  116  A    between atoms: _291  and  _293
REMARK  117  A    between atoms: _293  and  _294
REMARK  118  A    between atoms: _293  and  _296
REMARK  119  A    between atoms: _296  and  _297
REMARK  120  A    between atoms: _297  and  _298
REMARK  121  A    between atoms: _301  and  _303
REMARK  122  A    between atoms: _303  and  _304
REMARK  123  A    between atoms: _303  and  _306
REMARK  124  A    between atoms: _306  and  _307
REMARK  125  A    between atoms: _313  and  _315
REMARK  126  A    between atoms: _315  and  _316
REMARK  127  A    between atoms: _315  and  _318
REMARK  128  A    between atoms: _318  and  _319
REMARK  129  A    between atoms: _322  and  _324
REMARK  130  A    between atoms: _324  and  _325
REMARK  131  A    between atoms: _327  and  _329
REMARK  132  A    between atoms: _329  and  _330
REMARK  133  A    between atoms: _329  and  _332
REMARK  134  A    between atoms: _335  and  _337
REMARK  135  A    between atoms: _337  and  _338
REMARK  136  A    between atoms: _337  and  _340
REMARK  137  A    between atoms: _343  and  _345
REMARK  138  A    between atoms: _345  and  _346
REMARK  139  A    between atoms: _345  and  _348
REMARK  140  A    between atoms: _348  and  _349
REMARK  141  A    between atoms: _349  and  _350
REMARK  142  A    between atoms: _352  and  _354
REMARK  143  A    between atoms: _354  and  _355
REMARK  144  A    between atoms: _357  and  _359
REMARK  145  A    between atoms: _359  and  _360
REMARK  146  A    between atoms: _359  and  _362
REMARK  147  A    between atoms: _362  and  _363
REMARK  148  A    between atoms: _369  and  _371
REMARK  149  A    between atoms: _371  and  _372
REMARK  150  A    between atoms: _371  and  _374
REMARK  151  A    between atoms: _374  and  _375
REMARK  152  A    between atoms: _375  and  _376
REMARK  153  A    between atoms: _379  and  _381
REMARK  154  A    between atoms: _381  and  _382
REMARK  155  A    between atoms: _381  and  _384
REMARK  156  A    between atoms: _384  and  _385
REMARK  157  A    between atoms: _385  and  _386
REMARK  158  A    between atoms: _391  and  _393
REMARK  159  A    between atoms: _393  and  _394
REMARK  160  A    between atoms: _397  and  _399
REMARK  161  A    between atoms: _399  and  _400
REMARK  162  A    between atoms: _399  and  _402
REMARK  163  A    between atoms: _402  and  _403
REMARK  164  A    between atoms: _406  and  _408
REMARK  165  A    between atoms: _408  and  _409
REMARK  166  A    between atoms: _411  and  _413
REMARK  167  A    between atoms: _413  and  _414
REMARK  168  A    between atoms: _413  and  _416
REMARK  169  A    between atoms: _419  and  _421
REMARK  170  A    between atoms: _421  and  _422
REMARK  171  A    between atoms: _421  and  _424
REMARK  172  A    between atoms: _424  and  _425
REMARK  173  A    between atoms: _425  and  _426
REMARK  174  A    between atoms: _431  and  _433
REMARK  175  A    between atoms: _433  and  _434
REMARK  176  A    between atoms: _433  and  _436
REMARK  177  A    between atoms: _436  and  _437
REMARK  178  A    between atoms: _440  and  _442
REMARK  179  A    between atoms: _442  and  _443
REMARK  180  A    between atoms: _442  and  _445
REMARK  181  A    between atoms: _448  and  _450
REMARK  182  A    between atoms: _450  and  _451
REMARK  183  A    between atoms: _450  and  _453
REMARK  184  A    between atoms: _453  and  _454
REMARK  185  A    between atoms: _457  and  _459
REMARK  186  A    between atoms: _459  and  _460
REMARK  187  A    between atoms: _459  and  _462
REMARK  188  A    between atoms: _462  and  _463
REMARK  189  A    between atoms: _466  and  _468
REMARK  190  A    between atoms: _468  and  _469
REMARK  191  A    between atoms: _471  and  _473
REMARK  192  A    between atoms: _473  and  _474
REMARK  193  A    between atoms: _477  and  _479
REMARK  194  A    between atoms: _479  and  _480
REMARK  195  A    between atoms: _479  and  _482
REMARK  196  A    between atoms: _482  and  _483
REMARK  197  A    between atoms: _485  and  _487
REMARK  198  A    between atoms: _487  and  _488
REMARK  199  A    between atoms: _487  and  _490
REMARK  200  A    between atoms: _490  and  _491
REMARK  201  A    between atoms: _496  and  _497
REMARK  202  A    between atoms: _499  and  _501
REMARK  203  A    between atoms: _501  and  _502
REMARK  204  A    between atoms: _501  and  _504
REMARK  205  A    between atoms: _504  and  _505
REMARK  206  A    between atoms: _508  and  _510
REMARK  207  A    between atoms: _510  and  _511
REMARK  208  A    between atoms: _510  and  _513
REMARK  209  A    between atoms: _513  and  _514
REMARK  210  A    between atoms: _516  and  _518
REMARK  211  A    between atoms: _518  and  _519
REMARK  212  A    between atoms: _521  and  _523
REMARK  213  A    between atoms: _523  and  _524
REMARK  214  A    between atoms: _523  and  _526
REMARK  215  A    between atoms: _526  and  _527
REMARK  216  A    between atoms: _533  and  _535
REMARK  217  A    between atoms: _535  and  _536
REMARK  218  A    between atoms: _535  and  _538
REMARK  219  A    between atoms: _538  and  _539
REMARK  220  A    between atoms: _542  and  _544
REMARK  221  A    between atoms: _544  and  _545
REMARK  222  A    between atoms: _548  and  _550
REMARK  223  A    between atoms: _550  and  _551
REMARK  224  A    between atoms: _550  and  _553
REMARK  225  A    between atoms: _553  and  _554
REMARK  226  A    between atoms: _557  and  _559
REMARK  227  A    between atoms: _559  and  _560
REMARK  228  A    between atoms: _559  and  _562
REMARK  229  A    between atoms: _562  and  _563
REMARK  230  A    between atoms: _568  and  _570
REMARK  231  A    between atoms: _570  and  _571
REMARK  232  A    between atoms: _574  and  _576
REMARK  233  A    between atoms: _576  and  _577
REMARK  234  A    between atoms: _576  and  _579
REMARK  235  A    between atoms: _579  and  _580
REMARK  236  A    between atoms: _580  and  _581
REMARK  237  A    between atoms: _583  and  _585
REMARK  238  A    between atoms: _585  and  _586
REMARK  239  A    between atoms: _585  and  _588
REMARK  240  A    between atoms: _588  and  _589
REMARK  241  A    between atoms: _592  and  _594
REMARK  242  A    between atoms: _594  and  _595
REMARK  243  A    between atoms: _594  and  _597
REMARK  244  A    between atoms: _597  and  _598
REMARK  245  A    between atoms: _602  and  _603
REMARK  246  A    between atoms: _608  and  _610
REMARK  247  A    between atoms: _610  and  _611
REMARK  248  A    between atoms: _610  and  _613
REMARK  249  A    between atoms: _613  and  _614
REMARK  250  A    between atoms: _617  and  _619
REMARK  251  A    between atoms: _619  and  _620
REMARK  252  A    between atoms: _622  and  _624
REMARK  253  A    between atoms: _624  and  _625
REMARK  254  A    between atoms: _624  and  _627
REMARK  255  A    between atoms: _627  and  _628
REMARK  256  A    between atoms: _631  and  _633
REMARK  257  A    between atoms: _633  and  _634
REMARK  258  A    between atoms: _633  and  _636
REMARK  259  A    between atoms: _636  and  _637
REMARK  260  A    between atoms: _647  and  _649
REMARK  261  A    between atoms: _649  and  _650
REMARK  262  A    between atoms: _653  and  _655
REMARK  263  A    between atoms: _655  and  _656
REMARK  264  A    between atoms: _655  and  _658
REMARK  265  A    between atoms: _658  and  _659
REMARK  266  A    between atoms: _662  and  _664
REMARK  267  A    between atoms: _664  and  _665
REMARK  268  A    between atoms: _667  and  _669
REMARK  269  A    between atoms: _669  and  _670
REMARK  270  A    between atoms: _673  and  _675
REMARK  271  A    between atoms: _675  and  _676
REMARK  272  A    between atoms: _675  and  _678
REMARK  273  A    between atoms: _678  and  _679
REMARK  274  A    between atoms: _682  and  _684
REMARK  275  A    between atoms: _684  and  _685
REMARK  276  A    between atoms: _684  and  _687
REMARK  277  A    between atoms: _687  and  _688
REMARK                            x       y       z     vdW  Elec       q    Type
REMARK                         _______ _______ _______ _____ _____    ______ ____
ROOT
ATOM      1  C   ARG A   3     -15.412 -33.911 -38.471  0.00  0.00    +0.241 C 
ATOM      2  N   TYR A   4     -15.261 -32.886 -37.649  0.00  0.00    -0.297 N 
ATOM      3  H   TYR A   4     -16.102 -32.428 -37.244  0.00  0.00    +0.150 HD
ATOM      4  O   ARG A   3     -14.488 -34.360 -39.142  0.00  0.00    -0.273 OA
ENDROOT
BRANCH   2   5
ATOM      5  CA  TYR A   4     -13.933 -32.386 -37.299  0.00  0.00    +0.153 C 
BRANCH   5   6
ATOM      6  C   TYR A   4     -13.556 -33.004 -35.943  0.00  0.00    +0.241 C 
ATOM      7  O   TYR A   4     -14.405 -33.599 -35.279  0.00  0.00    -0.273 OA
ATOM      8  N   SER A   5     -12.303 -32.856 -35.522  0.00  0.00    -0.295 N 
ATOM      9  H   SER A   5     -11.610 -32.358 -36.116  0.00  0.00    +0.150 HD
BRANCH   8  10
ATOM     10  CA  SER A   5     -11.901 -33.394 -34.222  0.00  0.00    +0.178 C 
BRANCH  10  11
ATOM     11  C   SER A   5     -12.676 -32.747 -33.045  0.00  0.00    +0.243 C 
ATOM     12  O   SER A   5     -12.941 -33.373 -32.001  0.00  0.00    -0.273 OA
ATOM     13  N   THR A   6     -13.065 -31.490 -33.212  0.00  0.00    -0.295 N 
ATOM     14  H   THR A   6     -12.924 -31.016 -34.127  0.00  0.00    +0.150 HD
BRANCH  13  15
ATOM     15  CA  THR A   6     -13.689 -30.780 -32.108  0.00  0.00    +0.176 C 
BRANCH  15  16
ATOM     16  C   THR A   6     -15.133 -30.340 -32.374  0.00  0.00    +0.243 C 
ATOM     17  O   THR A   6     -15.729 -29.580 -31.611  0.00  0.00    -0.273 OA
ATOM     18  N   GLY A   7     -15.712 -30.813 -33.462  0.00  0.00    -0.296 N 
ATOM     19  H   GLY A   7     -15.183 -31.414 -34.125  0.00  0.00    +0.150 HD
BRANCH  18  20
ATOM     20  CA  GLY A   7     -17.103 -30.477 -33.715  0.00  0.00    +0.163 C 
BRANCH  20  21
ATOM     21  C   GLY A   7     -17.587 -31.029 -35.038  0.00  0.00    +0.229 C 
ATOM     22  O   GLY A   7     -16.799 -31.525 -35.827  0.00  0.00    -0.286 OA
ENDBRANCH  20  21
ENDBRANCH  18  20
ENDBRANCH  15  16
BRANCH  15  23
ATOM     23  CB  THR A   6     -12.796 -29.586 -31.745  0.00  0.00    +0.137 C 
ATOM     24  CG2 THR A   6     -11.394 -30.100 -31.245  0.00  0.00    +0.034 C 
BRANCH  23  25
ATOM     25  OG1 THR A   6     -12.614 -28.813 -32.933  0.00  0.00    -0.382 OA
ATOM     26  HG1 THR A   6     -12.040 -28.032 -32.732  0.00  0.00    +0.210 HD
ENDBRANCH  23  25
ENDBRANCH  15  23
ENDBRANCH  13  15
ENDBRANCH  10  11
BRANCH  10  27
ATOM     27  CB  SER A   5     -10.381 -33.241 -34.058  0.00  0.00    +0.166 C 
BRANCH  27  28
ATOM     28  OG  SER A   5      -9.957 -33.730 -32.781  0.00  0.00    -0.380 OA
ATOM     29  H   SER A   5     -10.193 -34.688 -32.701  0.00  0.00    +0.211 HD
ENDBRANCH  27  28
ENDBRANCH  10  27
ENDBRANCH   8  10
ENDBRANCH   5   6
BRANCH   5  30
ATOM     30  CB  TYR A   4     -13.934 -30.865 -37.189  0.00  0.00    +0.055 C 
BRANCH  30  31
ATOM     31  CG  TYR A   4     -14.259 -30.158 -38.498  0.00  0.00    -0.020 A 
ATOM     32  CD2 TYR A   4     -15.515 -29.622 -38.707  0.00  0.00    -0.001 A 
ATOM     33  CE2 TYR A   4     -15.837 -28.991 -39.891  0.00  0.00    +0.036 A 
ATOM     34  CZ  TYR A   4     -14.877 -28.848 -40.875  0.00  0.00    +0.134 A 
ATOM     35  CE1 TYR A   4     -13.612 -29.389 -40.712  0.00  0.00    +0.036 A 
ATOM     36  CD1 TYR A   4     -13.312 -30.040 -39.518  0.00  0.00    -0.001 A 
BRANCH  34  37
ATOM     37  OH  TYR A   4     -15.219 -28.179 -42.017  0.00  0.00    -0.506 OA
ATOM     38  HH  TYR A   4     -14.441 -28.153 -42.628  0.00  0.00    +0.292 HD
ENDBRANCH  34  37
ENDBRANCH  30  31
ENDBRANCH   5  30
ENDBRANCH   2   5
BRANCH   1  39
ATOM     39  CA  ARG A   3     -16.834 -34.459 -38.614  0.00  0.00    +0.149 C 
BRANCH  39  42
ATOM     40  C   LEU A   2     -17.981 -33.157 -40.305  0.00  0.00    +0.241 C 
ATOM     41  O   LEU A   2     -18.390 -32.330 -39.485  0.00  0.00    -0.273 OA
ATOM     42  N   ARG A   3     -17.233 -34.198 -39.977  0.00  0.00    -0.297 N 
ATOM     43  H   ARG A   3     -16.922 -34.850 -40.726  0.00  0.00    +0.150 HD
BRANCH  40  44
ATOM     44  CA  LEU A   2     -18.340 -33.055 -41.790  0.00  0.00    +0.149 C 
BRANCH  44  46
ATOM     45  C   THR A   1     -20.175 -34.430 -42.647  0.00  0.00    +0.241 C 
ATOM     46  N   LEU A   2     -19.749 -33.361 -41.960  0.00  0.00    -0.297 N 
ATOM     47  H   LEU A   2     -20.454 -32.727 -41.533  0.00  0.00    +0.150 HD
ATOM     48  O   THR A   1     -19.419 -35.244 -43.168  0.00  0.00    -0.274 OA
BRANCH  45  49
ATOM     49  CA  THR A   1     -21.681 -34.600 -42.794  0.00  0.00    +0.172 C 
BRANCH  49  50
ATOM     50  N   THR A   1     -22.051 -34.786 -44.210  0.00  0.00    -0.236 NA
ATOM     51  H   THR A   1     -21.706 -35.627 -44.716  0.00  0.00    +0.142 HD
ENDBRANCH  49  50
BRANCH  49  52
ATOM     52  CB  THR A   1     -22.216 -35.720 -41.853  0.00  0.00    +0.135 C 
ATOM     53  CG2 THR A   1     -21.841 -35.452 -40.376  0.00  0.00    +0.034 C 
BRANCH  52  54
ATOM     54  OG1 THR A   1     -23.637 -35.738 -41.954  0.00  0.00    -0.383 OA
ATOM     55  HG1 THR A   1     -23.997 -34.858 -41.679  0.00  0.00    +0.210 HD
ENDBRANCH  52  54
ENDBRANCH  49  52
ENDBRANCH  45  49
ENDBRANCH  44  46
BRANCH  44  56
ATOM     56  CB  LEU A   2     -17.997 -31.638 -42.300  0.00  0.00    +0.029 C 
BRANCH  56  57
ATOM     57  CG  LEU A   2     -18.357 -31.297 -43.758  0.00  0.00    +0.002 C 
ATOM     58  CD2 LEU A   2     -18.009 -29.831 -44.043  0.00  0.00    +0.000 C 
ATOM     59  CD1 LEU A   2     -17.593 -32.202 -44.729  0.00  0.00    +0.000 C 
ENDBRANCH  56  57
ENDBRANCH  44  56
ENDBRANCH  40  44
ENDBRANCH  39  42
BRANCH  39  60
ATOM     60  CB  ARG A   3     -16.926 -35.956 -38.269  0.00  0.00    +0.033 C 
BRANCH  60  61
ATOM     61  CG  ARG A   3     -18.376 -36.522 -38.250  0.00  0.00    +0.045 C 
BRANCH  61  62
ATOM     62  CD  ARG A   3     -18.438 -38.049 -38.251  0.00  0.00    +0.174 C 
BRANCH  62  63
ATOM     63  NE  ARG A   3     -19.806 -38.511 -38.596  0.00  0.00    -0.265 N 
ATOM     64  HE  ARG A   3     -20.480 -38.610 -37.810  0.00  0.00    +0.259 HD
ATOM     65  CZ  ARG A   3     -20.262 -38.816 -39.831  0.00  0.00    +0.342 C 
ATOM     66  NH2 ARG A   3     -21.534 -39.211 -40.008  0.00  0.00    -0.292 N 
ATOM     67 HH21 ARG A   3     -22.174 -39.284 -39.192  0.00  0.00    +0.255 HD
ATOM     68 HH22 ARG A   3     -21.878 -39.444 -40.961  0.00  0.00    +0.255 HD
ATOM     69  NH1 ARG A   3     -19.475 -38.736 -40.912  0.00  0.00    -0.292 N 
ATOM     70 HH11 ARG A   3     -18.485 -38.433 -40.813  0.00  0.00    +0.255 HD
ATOM     71 HH12 ARG A   3     -19.854 -38.977 -41.850  0.00  0.00    +0.255 HD
ENDBRANCH  62  63
ENDBRANCH  61  62
ENDBRANCH  60  61
ENDBRANCH  39  60
ENDBRANCH   1  39
TORSDOF 29
REMARK  Name = ../refined-set-2016/3own/3own_pocket.pdb
REMARK  277 active torsions:
REMARK  status: ('A' for Active; 'I' for Inactive)
REMARK    1  A    between atoms: _1  and  _3
REMARK    2  A    between atoms: _3  and  _4
REMARK    3  A    between atoms: _3  and  _6
REMARK    4  A    between atoms: _6  and  _7
REMARK    5  A    between atoms: _12  and  _13
REMARK    6  A    between atoms: _15  and  _17
REMARK    7  A    between atoms: _17  and  _18
REMARK    8  A    between atoms: _17  and  _20
REMARK    9  A    between atoms: _20  and  _21
REMARK   10  A    between atoms: _24  and  _26
REMARK   11  A    between atoms: _26  and  _27
REMARK   12  A    between atoms: _26  and  _29
REMARK   13  A    between atoms: _29  and  _30
REMARK   14  A    between atoms: _33  and  _35
REMARK   15  A    between atoms: _35  and  _36
REMARK   16  A    between atoms: _35  and  _38
REMARK   17  A    between atoms: _38  and  _39
REMARK   18  A    between atoms: _39  and  _40
REMARK   19  A    between atoms: _45  and  _47
REMARK   20  A    between atoms: _47  and  _48
REMARK   21  A    between atoms: _47  and  _50
REMARK   22  A    between atoms: _50  and  _51
REMARK   23  A    between atoms: _56  and  _57
REMARK   24  A    between atoms: _59  and  _61
REMARK   25  A    between atoms: _61  and  _62
REMARK   26  A    between atoms: _61  and  _64
REMARK   27  A    between atoms: _67  and  _69
REMARK   28  A    between atoms: _69  and  _70
REMARK   29  A    between atoms: _69  and  _72
REMARK   30  A    between atoms: _72  and  _73
REMARK   31  A    between atoms: _79  and  _81
REMARK   32  A    between atoms: _81  and  _82
REMARK   33  A    between atoms: _81  and  _84
REMARK   34  A    between atoms: _84  and  _85
REMARK   35  A    between atoms: _88  and  _90
REMARK   36  A    between atoms: _90  and  _91
REMARK   37  A    between atoms: _90  and  _93
REMARK   38  A    between atoms: _93  and  _94
REMARK   39  A    between atoms: _97  and  _99
REMARK   40  A    between atoms: _99  and  _100
REMARK   41  A    between atoms: _102  and  _104
REMARK   42  A    between atoms: _104  and  _105
REMARK   43  A    between atoms: _104  and  _107
REMARK   44  A    between atoms: _107  and  _108
REMARK   45  A    between atoms: _110  and  _112
REMARK   46  A    between atoms: _112  and  _113
REMARK   47  A    between atoms: _112  and  _115
REMARK   48  A    between atoms: _115  and  _116
REMARK   49  A    between atoms: _118  and  _120
REMARK   50  A    between atoms: _120  and  _121
REMARK   51  A    between atoms: _120  and  _123
REMARK   52  A    between atoms: _123  and  _124
REMARK   53  A    between atoms: _129  and  _131
REMARK   54  A    between atoms: _131  and  _132
REMARK   55  A    between atoms: _131  and  _134
REMARK   56  A    between atoms: _134  and  _135
REMARK   57  A    between atoms: _145  and  _147
REMARK   58  A    between atoms: _147  and  _148
REMARK   59  A    between atoms: _147  and  _150
REMARK   60  A    between atoms: _150  and  _151
REMARK   61  A    between atoms: _154  and  _156
REMARK   62  A    between atoms: _156  and  _157
REMARK   63  A    between atoms: _156  and  _159
REMARK   64  A    between atoms: _159  and  _160
REMARK   65  A    between atoms: _163  and  _165
REMARK   66  A    between atoms: _165  and  _166
REMARK   67  A    between atoms: _165  and  _168
REMARK   68  A    between atoms: _168  and  _169
REMARK   69  A    between atoms: _169  and  _170
REMARK   70  A    between atoms: _170  and  _171
REMARK   71  A    between atoms: _180  and  _182
REMARK   72  A    between atoms: _182  and  _183
REMARK   73  A    between atoms: _182  and  _185
REMARK   74  A    between atoms: _185  and  _186
REMARK   75  A    between atoms: _191  and  _192
REMARK   76  A    between atoms: _194  and  _196
REMARK   77  A    between atoms: _196  and  _197
REMARK   78  A    between atoms: _196  and  _199
REMARK   79  A    between atoms: _199  and  _200
REMARK   80  A    between atoms: _202  and  _204
REMARK   81  A    between atoms: _204  and  _205
REMARK   82  A    between atoms: _204  and  _207
REMARK   83  A    between atoms: _207  and  _208
REMARK   84  A    between atoms: _211  and  _213
REMARK   85  A    between atoms: _213  and  _214
REMARK   86  A    between atoms: _216  and  _218
REMARK   87  A    between atoms: _218  and  _219
REMARK   88  A    between atoms: _218  and  _221
REMARK   89  A    between atoms: _224  and  _226
REMARK   90  A    between atoms: _226  and  _227
REMARK   91  A    between atoms: _226  and  _229
REMARK   92  A    between atoms: _229  and  _230
REMARK   93  A    between atoms: _230  and  _231
REMARK   94  A    between atoms: _233  and  _235
REMARK   95  A    between atoms: _235  and  _236
REMARK   96  A    between atoms: _239  and  _241
REMARK   97  A    between atoms: _241  and  _242
REMARK   98  A    between atoms: _241  and  _244
REMARK   99  A    between atoms: _244  and  _245
REMARK  100  A    between atoms: _249  and  _250
REMARK  101  A    between atoms: _255  and  _257
REMARK  102  A    between atoms: _257  and  _258
REMARK  103  A    between atoms: _257  and  _260
REMARK  104  A    between atoms: _260  and  _261
REMARK  105  A    between atoms: _267  and  _269
REMARK  106  A    between atoms: _269  and  _270
REMARK  107  A    between atoms: _269  and  _272
REMARK  108  A    between atoms: _272  and  _273
REMARK  109  A    between atoms: _273  and  _274
REMARK  110  A    between atoms: _276  and  _278
REMARK  111  A    between atoms: _278  and  _279
REMARK  112  A    between atoms: _278  and  _281
REMARK  113  A    between atoms: _281  and  _282
REMARK  114  A    between atoms: _285  and  _287
REMARK  115  A    between atoms: _287  and  _288
REMARK  116  A    between atoms: _291  and  _293
REMARK  117  A    between atoms: _293  and  _294
REMARK  118  A    between atoms: _293  and  _296
REMARK  119  A    between atoms: _296  and  _297
REMARK  120  A    between atoms: _297  and  _298
REMARK  121  A    between atoms: _301  and  _303
REMARK  122  A    between atoms: _303  and  _304
REMARK  123  A    between atoms: _303  and  _306
REMARK  124  A    between atoms: _306  and  _307
REMARK  125  A    between atoms: _313  and  _315
REMARK  126  A    between atoms: _315  and  _316
REMARK  127  A    between atoms: _315  and  _318
REMARK  128  A    between atoms: _318  and  _319
REMARK  129  A    between atoms: _322  and  _324
REMARK  130  A    between atoms: _324  and  _325
REMARK  131  A    between atoms: _327  and  _329
REMARK  132  A    between atoms: _329  and  _330
REMARK  133  A    between atoms: _329  and  _332
REMARK  134  A    between atoms: _335  and  _337
REMARK  135  A    between atoms: _337  and  _338
REMARK  136  A    between atoms: _337  and  _340
REMARK  137  A    between atoms: _343  and  _345
REMARK  138  A    between atoms: _345  and  _346
REMARK  139  A    between atoms: _345  and  _348
REMARK  140  A    between atoms: _348  and  _349
REMARK  141  A    between atoms: _349  and  _350
REMARK  142  A    between atoms: _352  and  _354
REMARK  143  A    between atoms: _354  and  _355
REMARK  144  A    between atoms: _357  and  _359
REMARK  145  A    between atoms: _359  and  _360
REMARK  146  A    between atoms: _359  and  _362
REMARK  147  A    between atoms: _362  and  _363
REMARK  148  A    between atoms: _369  and  _371
REMARK  149  A    between atoms: _371  and  _372
REMARK  150  A    between atoms: _371  and  _374
REMARK  151  A    between atoms: _374  and  _375
REMARK  152  A    between atoms: _375  and  _376
REMARK  153  A    between atoms: _379  and  _381
REMARK  154  A    between atoms: _381  and  _382
REMARK  155  A    between atoms: _381  and  _384
REMARK  156  A    between atoms: _384  and  _385
REMARK  157  A    between atoms: _385  and  _386
REMARK  158  A    between atoms: _391  and  _393
REMARK  159  A    between atoms: _393  and  _394
REMARK  160  A    between atoms: _397  and  _399
REMARK  161  A    between atoms: _399  and  _400
REMARK  162  A    between atoms: _399  and  _402
REMARK  163  A    between atoms: _402  and  _403
REMARK  164  A    between atoms: _406  and  _408
REMARK  165  A    between atoms: _408  and  _409
REMARK  166  A    between atoms: _411  and  _413
REMARK  167  A    between atoms: _413  and  _414
REMARK  168  A    between atoms: _413  and  _416
REMARK  169  A    between atoms: _419  and  _421
REMARK  170  A    between atoms: _421  and  _422
REMARK  171  A    between atoms: _421  and  _424
REMARK  172  A    between atoms: _424  and  _425
REMARK  173  A    between atoms: _425  and  _426
REMARK  174  A    between atoms: _431  and  _433
REMARK  175  A    between atoms: _433  and  _434
REMARK  176  A    between atoms: _433  and  _436
REMARK  177  A    between atoms: _436  and  _437
REMARK  178  A    between atoms: _440  and  _442
REMARK  179  A    between atoms: _442  and  _443
REMARK  180  A    between atoms: _442  and  _445
REMARK  181  A    between atoms: _448  and  _450
REMARK  182  A    between atoms: _450  and  _451
REMARK  183  A    between atoms: _450  and  _453
REMARK  184  A    between atoms: _453  and  _454
REMARK  185  A    between atoms: _457  and  _459
REMARK  186  A    between atoms: _459  and  _460
REMARK  187  A    between atoms: _459  and  _462
REMARK  188  A    between atoms: _462  and  _463
REMARK  189  A    between atoms: _466  and  _468
REMARK  190  A    between atoms: _468  and  _469
REMARK  191  A    between atoms: _471  and  _473
REMARK  192  A    between atoms: _473  and  _474
REMARK  193  A    between atoms: _477  and  _479
REMARK  194  A    between atoms: _479  and  _480
REMARK  195  A    between atoms: _479  and  _482
REMARK  196  A    between atoms: _482  and  _483
REMARK  197  A    between atoms: _485  and  _487
REMARK  198  A    between atoms: _487  and  _488
REMARK  199  A    between atoms: _487  and  _490
REMARK  200  A    between atoms: _490  and  _491
REMARK  201  A    between atoms: _496  and  _497
REMARK  202  A    between atoms: _499  and  _501
REMARK  203  A    between atoms: _501  and  _502
REMARK  204  A    between atoms: _501  and  _504
REMARK  205  A    between atoms: _504  and  _505
REMARK  206  A    between atoms: _508  and  _510
REMARK  207  A    between atoms: _510  and  _511
REMARK  208  A    between atoms: _510  and  _513
REMARK  209  A    between atoms: _513  and  _514
REMARK  210  A    between atoms: _516  and  _518
REMARK  211  A    between atoms: _518  and  _519
REMARK  212  A    between atoms: _521  and  _523
REMARK  213  A    between atoms: _523  and  _524
REMARK  214  A    between atoms: _523  and  _526
REMARK  215  A    between atoms: _526  and  _527
REMARK  216  A    between atoms: _533  and  _535
REMARK  217  A    between atoms: _535  and  _536
REMARK  218  A    between atoms: _535  and  _538
REMARK  219  A    between atoms: _538  and  _539
REMARK  220  A    between atoms: _542  and  _544
REMARK  221  A    between atoms: _544  and  _545
REMARK  222  A    between atoms: _548  and  _550
REMARK  223  A    between atoms: _550  and  _551
REMARK  224  A    between atoms: _550  and  _553
REMARK  225  A    between atoms: _553  and  _554
REMARK  226  A    between atoms: _557  and  _559
REMARK  227  A    between atoms: _559  and  _560
REMARK  228  A    between atoms: _559  and  _562
REMARK  229  A    between atoms: _562  and  _563
REMARK  230  A    between atoms: _568  and  _570
REMARK  231  A    between atoms: _570  and  _571
REMARK  232  A    between atoms: _574  and  _576
REMARK  233  A    between atoms: _576  and  _577
REMARK  234  A    between atoms: _576  and  _579
REMARK  235  A    between atoms: _579  and  _580
REMARK  236  A    between atoms: _580  and  _581
REMARK  237  A    between atoms: _583  and  _585
REMARK  238  A    between atoms: _585  and  _586
REMARK  239  A    between atoms: _585  and  _588
REMARK  240  A    between atoms: _588  and  _589
REMARK  241  A    between atoms: _592  and  _594
REMARK  242  A    between atoms: _594  and  _595
REMARK  243  A    between atoms: _594  and  _597
REMARK  244  A    between atoms: _597  and  _598
REMARK  245  A    between atoms: _602  and  _603
REMARK  246  A    between atoms: _608  and  _610
REMARK  247  A    between atoms: _610  and  _611
REMARK  248  A    between atoms: _610  and  _613
REMARK  249  A    between atoms: _613  and  _614
REMARK  250  A    between atoms: _617  and  _619
REMARK  251  A    between atoms: _619  and  _620
REMARK  252  A    between atoms: _622  and  _624
REMARK  253  A    between atoms: _624  and  _625
REMARK  254  A    between atoms: _624  and  _627
REMARK  255  A    between atoms: _627  and  _628
REMARK  256  A    between atoms: _631  and  _633
REMARK  257  A    between atoms: _633  and  _634
REMARK  258  A    between atoms: _633  and  _636
REMARK  259  A    between atoms: _636  and  _637
REMARK  260  A    between atoms: _647  and  _649
REMARK  261  A    between atoms: _649  and  _650
REMARK  262  A    between atoms: _653  and  _655
REMARK  263  A    between atoms: _655  and  _656
REMARK  264  A    between atoms: _655  and  _658
REMARK  265  A    between atoms: _658  and  _659
REMARK  266  A    between atoms: _662  and  _664
REMARK  267  A    between atoms: _664  and  _665
REMARK  268  A    between atoms: _667  and  _669
REMARK  269  A    between atoms: _669  and  _670
REMARK  270  A    between atoms: _673  and  _675
REMARK  271  A    between atoms: _675  and  _676
REMARK  272  A    between atoms: _675  and  _678
REMARK  273  A    between atoms: _678  and  _679
REMARK  274  A    between atoms: _682  and  _684
REMARK  275  A    between atoms: _684  and  _685
REMARK  276  A    between atoms: _684  and  _687
REMARK  277  A    between atoms: _687  and  _688
REMARK                            x       y       z     vdW  Elec       q    Type
REMARK                         _______ _______ _______ _____ _____    ______ ____
ROOT
ATOM      1  CA  VAL A   1     -21.729 -29.816 -39.088  0.00  0.00    +0.133 C 
ENDROOT
BRANCH   1   2
ATOM      2  CB  VAL A   1     -21.287 -28.514 -39.823  0.00  0.00    +0.023 C 
ATOM      3  CG2 VAL A   1     -21.009 -27.391 -38.812  0.00  0.00    +0.002 C 
ATOM      4  CG1 VAL A   1     -20.066 -28.727 -40.758  0.00  0.00    +0.002 C 
ENDBRANCH   1   2
BRANCH   1   5
ATOM      5  N   VAL A   1     -20.651 -30.519 -38.402  0.00  0.00    -0.239 NA
ATOM      6  H   VAL A   1     -19.935 -31.009 -38.975  0.00  0.00    +0.142 HD
ENDBRANCH   1   5
BRANCH   1   7
ATOM      7  C   VAL A   1     -22.310 -30.789 -40.111  0.00  0.00    +0.224 C 
ATOM      8  O   VAL A   1     -21.628 -31.704 -40.535  0.00  0.00    -0.287 OA
ENDBRANCH   1   7
TORSDOF 3
REMARK  Name = ../refined-set-2016/3own/3own_pocket.pdb
REMARK  277 active torsions:
REMARK  status: ('A' for Active; 'I' for Inactive)
REMARK    1  A    between atoms: _1  and  _3
REMARK    2  A    between atoms: _3  and  _4
REMARK    3  A    between atoms: _3  and  _6
REMARK    4  A    between atoms: _6  and  _7
REMARK    5  A    between atoms: _12  and  _13
REMARK    6  A    between atoms: _15  and  _17
REMARK    7  A    between atoms: _17  and  _18
REMARK    8  A    between atoms: _17  and  _20
REMARK    9  A    between atoms: _20  and  _21
REMARK   10  A    between atoms: _24  and  _26
REMARK   11  A    between atoms: _26  and  _27
REMARK   12  A    between atoms: _26  and  _29
REMARK   13  A    between atoms: _29  and  _30
REMARK   14  A    between atoms: _33  and  _35
REMARK   15  A    between atoms: _35  and  _36
REMARK   16  A    between atoms: _35  and  _38
REMARK   17  A    between atoms: _38  and  _39
REMARK   18  A    between atoms: _39  and  _40
REMARK   19  A    between atoms: _45  and  _47
REMARK   20  A    between atoms: _47  and  _48
REMARK   21  A    between atoms: _47  and  _50
REMARK   22  A    between atoms: _50  and  _51
REMARK   23  A    between atoms: _56  and  _57
REMARK   24  A    between atoms: _59  and  _61
REMARK   25  A    between atoms: _61  and  _62
REMARK   26  A    between atoms: _61  and  _64
REMARK   27  A    between atoms: _67  and  _69
REMARK   28  A    between atoms: _69  and  _70
REMARK   29  A    between atoms: _69  and  _72
REMARK   30  A    between atoms: _72  and  _73
REMARK   31  A    between atoms: _79  and  _81
REMARK   32  A    between atoms: _81  and  _82
REMARK   33  A    between atoms: _81  and  _84
REMARK   34  A    between atoms: _84  and  _85
REMARK   35  A    between atoms: _88  and  _90
REMARK   36  A    between atoms: _90  and  _91
REMARK   37  A    between atoms: _90  and  _93
REMARK   38  A    between atoms: _93  and  _94
REMARK   39  A    between atoms: _97  and  _99
REMARK   40  A    between atoms: _99  and  _100
REMARK   41  A    between atoms: _102  and  _104
REMARK   42  A    between atoms: _104  and  _105
REMARK   43  A    between atoms: _104  and  _107
REMARK   44  A    between atoms: _107  and  _108
REMARK   45  A    between atoms: _110  and  _112
REMARK   46  A    between atoms: _112  and  _113
REMARK   47  A    between atoms: _112  and  _115
REMARK   48  A    between atoms: _115  and  _116
REMARK   49  A    between atoms: _118  and  _120
REMARK   50  A    between atoms: _120  and  _121
REMARK   51  A    between atoms: _120  and  _123
REMARK   52  A    between atoms: _123  and  _124
REMARK   53  A    between atoms: _129  and  _131
REMARK   54  A    between atoms: _131  and  _132
REMARK   55  A    between atoms: _131  and  _134
REMARK   56  A    between atoms: _134  and  _135
REMARK   57  A    between atoms: _145  and  _147
REMARK   58  A    between atoms: _147  and  _148
REMARK   59  A    between atoms: _147  and  _150
REMARK   60  A    between atoms: _150  and  _151
REMARK   61  A    between atoms: _154  and  _156
REMARK   62  A    between atoms: _156  and  _157
REMARK   63  A    between atoms: _156  and  _159
REMARK   64  A    between atoms: _159  and  _160
REMARK   65  A    between atoms: _163  and  _165
REMARK   66  A    between atoms: _165  and  _166
REMARK   67  A    between atoms: _165  and  _168
REMARK   68  A    between atoms: _168  and  _169
REMARK   69  A    between atoms: _169  and  _170
REMARK   70  A    between atoms: _170  and  _171
REMARK   71  A    between atoms: _180  and  _182
REMARK   72  A    between atoms: _182  and  _183
REMARK   73  A    between atoms: _182  and  _185
REMARK   74  A    between atoms: _185  and  _186
REMARK   75  A    between atoms: _191  and  _192
REMARK   76  A    between atoms: _194  and  _196
REMARK   77  A    between atoms: _196  and  _197
REMARK   78  A    between atoms: _196  and  _199
REMARK   79  A    between atoms: _199  and  _200
REMARK   80  A    between atoms: _202  and  _204
REMARK   81  A    between atoms: _204  and  _205
REMARK   82  A    between atoms: _204  and  _207
REMARK   83  A    between atoms: _207  and  _208
REMARK   84  A    between atoms: _211  and  _213
REMARK   85  A    between atoms: _213  and  _214
REMARK   86  A    between atoms: _216  and  _218
REMARK   87  A    between atoms: _218  and  _219
REMARK   88  A    between atoms: _218  and  _221
REMARK   89  A    between atoms: _224  and  _226
REMARK   90  A    between atoms: _226  and  _227
REMARK   91  A    between atoms: _226  and  _229
REMARK   92  A    between atoms: _229  and  _230
REMARK   93  A    between atoms: _230  and  _231
REMARK   94  A    between atoms: _233  and  _235
REMARK   95  A    between atoms: _235  and  _236
REMARK   96  A    between atoms: _239  and  _241
REMARK   97  A    between atoms: _241  and  _242
REMARK   98  A    between atoms: _241  and  _244
REMARK   99  A    between atoms: _244  and  _245
REMARK  100  A    between atoms: _249  and  _250
REMARK  101  A    between atoms: _255  and  _257
REMARK  102  A    between atoms: _257  and  _258
REMARK  103  A    between atoms: _257  and  _260
REMARK  104  A    between atoms: _260  and  _261
REMARK  105  A    between atoms: _267  and  _269
REMARK  106  A    between atoms: _269  and  _270
REMARK  107  A    between atoms: _269  and  _272
REMARK  108  A    between atoms: _272  and  _273
REMARK  109  A    between atoms: _273  and  _274
REMARK  110  A    between atoms: _276  and  _278
REMARK  111  A    between atoms: _278  and  _279
REMARK  112  A    between atoms: _278  and  _281
REMARK  113  A    between atoms: _281  and  _282
REMARK  114  A    between atoms: _285  and  _287
REMARK  115  A    between atoms: _287  and  _288
REMARK  116  A    between atoms: _291  and  _293
REMARK  117  A    between atoms: _293  and  _294
REMARK  118  A    between atoms: _293  and  _296
REMARK  119  A    between atoms: _296  and  _297
REMARK  120  A    between atoms: _297  and  _298
REMARK  121  A    between atoms: _301  and  _303
REMARK  122  A    between atoms: _303  and  _304
REMARK  123  A    between atoms: _303  and  _306
REMARK  124  A    between atoms: _306  and  _307
REMARK  125  A    between atoms: _313  and  _315
REMARK  126  A    between atoms: _315  and  _316
REMARK  127  A    between atoms: _315  and  _318
REMARK  128  A    between atoms: _318  and  _319
REMARK  129  A    between atoms: _322  and  _324
REMARK  130  A    between atoms: _324  and  _325
REMARK  131  A    between atoms: _327  and  _329
REMARK  132  A    between atoms: _329  and  _330
REMARK  133  A    between atoms: _329  and  _332
REMARK  134  A    between atoms: _335  and  _337
REMARK  135  A    between atoms: _337  and  _338
REMARK  136  A    between atoms: _337  and  _340
REMARK  137  A    between atoms: _343  and  _345
REMARK  138  A    between atoms: _345  and  _346
REMARK  139  A    between atoms: _345  and  _348
REMARK  140  A    between atoms: _348  and  _349
REMARK  141  A    between atoms: _349  and  _350
REMARK  142  A    between atoms: _352  and  _354
REMARK  143  A    between atoms: _354  and  _355
REMARK  144  A    between atoms: _357  and  _359
REMARK  145  A    between atoms: _359  and  _360
REMARK  146  A    between atoms: _359  and  _362
REMARK  147  A    between atoms: _362  and  _363
REMARK  148  A    between atoms: _369  and  _371
REMARK  149  A    between atoms: _371  and  _372
REMARK  150  A    between atoms: _371  and  _374
REMARK  151  A    between atoms: _374  and  _375
REMARK  152  A    between atoms: _375  and  _376
REMARK  153  A    between atoms: _379  and  _381
REMARK  154  A    between atoms: _381  and  _382
REMARK  155  A    between atoms: _381  and  _384
REMARK  156  A    between atoms: _384  and  _385
REMARK  157  A    between atoms: _385  and  _386
REMARK  158  A    between atoms: _391  and  _393
REMARK  159  A    between atoms: _393  and  _394
REMARK  160  A    between atoms: _397  and  _399
REMARK  161  A    between atoms: _399  and  _400
REMARK  162  A    between atoms: _399  and  _402
REMARK  163  A    between atoms: _402  and  _403
REMARK  164  A    between atoms: _406  and  _408
REMARK  165  A    between atoms: _408  and  _409
REMARK  166  A    between atoms: _411  and  _413
REMARK  167  A    between atoms: _413  and  _414
REMARK  168  A    between atoms: _413  and  _416
REMARK  169  A    between atoms: _419  and  _421
REMARK  170  A    between atoms: _421  and  _422
REMARK  171  A    between atoms: _421  and  _424
REMARK  172  A    between atoms: _424  and  _425
REMARK  173  A    between atoms: _425  and  _426
REMARK  174  A    between atoms: _431  and  _433
REMARK  175  A    between atoms: _433  and  _434
REMARK  176  A    between atoms: _433  and  _436
REMARK  177  A    between atoms: _436  and  _437
REMARK  178  A    between atoms: _440  and  _442
REMARK  179  A    between atoms: _442  and  _443
REMARK  180  A    between atoms: _442  and  _445
REMARK  181  A    between atoms: _448  and  _450
REMARK  182  A    between atoms: _450  and  _451
REMARK  183  A    between atoms: _450  and  _453
REMARK  184  A    between atoms: _453  and  _454
REMARK  185  A    between atoms: _457  and  _459
REMARK  186  A    between atoms: _459  and  _460
REMARK  187  A    between atoms: _459  and  _462
REMARK  188  A    between atoms: _462  and  _463
REMARK  189  A    between atoms: _466  and  _468
REMARK  190  A    between atoms: _468  and  _469
REMARK  191  A    between atoms: _471  and  _473
REMARK  192  A    between atoms: _473  and  _474
REMARK  193  A    between atoms: _477  and  _479
REMARK  194  A    between atoms: _479  and  _480
REMARK  195  A    between atoms: _479  and  _482
REMARK  196  A    between atoms: _482  and  _483
REMARK  197  A    between atoms: _485  and  _487
REMARK  198  A    between atoms: _487  and  _488
REMARK  199  A    between atoms: _487  and  _490
REMARK  200  A    between atoms: _490  and  _491
REMARK  201  A    between atoms: _496  and  _497
REMARK  202  A    between atoms: _499  and  _501
REMARK  203  A    between atoms: _501  and  _502
REMARK  204  A    between atoms: _501  and  _504
REMARK  205  A    between atoms: _504  and  _505
REMARK  206  A    between atoms: _508  and  _510
REMARK  207  A    between atoms: _510  and  _511
REMARK  208  A    between atoms: _510  and  _513
REMARK  209  A    between atoms: _513  and  _514
REMARK  210  A    between atoms: _516  and  _518
REMARK  211  A    between atoms: _518  and  _519
REMARK  212  A    between atoms: _521  and  _523
REMARK  213  A    between atoms: _523  and  _524
REMARK  214  A    between atoms: _523  and  _526
REMARK  215  A    between atoms: _526  and  _527
REMARK  216  A    between atoms: _533  and  _535
REMARK  217  A    between atoms: _535  and  _536
REMARK  218  A    between atoms: _535  and  _538
REMARK  219  A    between atoms: _538  and  _539
REMARK  220  A    between atoms: _542  and  _544
REMARK  221  A    between atoms: _544  and  _545
REMARK  222  A    between atoms: _548  and  _550
REMARK  223  A    between atoms: _550  and  _551
REMARK  224  A    between atoms: _550  and  _553
REMARK  225  A    between atoms: _553  and  _554
REMARK  226  A    between atoms: _557  and  _559
REMARK  227  A    between atoms: _559  and  _560
REMARK  228  A    between atoms: _559  and  _562
REMARK  229  A    between atoms: _562  and  _563
REMARK  230  A    between atoms: _568  and  _570
REMARK  231  A    between atoms: _570  and  _571
REMARK  232  A    between atoms: _574  and  _576
REMARK  233  A    between atoms: _576  and  _577
REMARK  234  A    between atoms: _576  and  _579
REMARK  235  A    between atoms: _579  and  _580
REMARK  236  A    between atoms: _580  and  _581
REMARK  237  A    between atoms: _583  and  _585
REMARK  238  A    between atoms: _585  and  _586
REMARK  239  A    between atoms: _585  and  _588
REMARK  240  A    between atoms: _588  and  _589
REMARK  241  A    between atoms: _592  and  _594
REMARK  242  A    between atoms: _594  and  _595
REMARK  243  A    between atoms: _594  and  _597
REMARK  244  A    between atoms: _597  and  _598
REMARK  245  A    between atoms: _602  and  _603
REMARK  246  A    between atoms: _608  and  _610
REMARK  247  A    between atoms: _610  and  _611
REMARK  248  A    between atoms: _610  and  _613
REMARK  249  A    between atoms: _613  and  _614
REMARK  250  A    between atoms: _617  and  _619
REMARK  251  A    between atoms: _619  and  _620
REMARK  252  A    between atoms: _622  and  _624
REMARK  253  A    between atoms: _624  and  _625
REMARK  254  A    between atoms: _624  and  _627
REMARK  255  A    between atoms: _627  and  _628
REMARK  256  A    between atoms: _631  and  _633
REMARK  257  A    between atoms: _633  and  _634
REMARK  258  A    between atoms: _633  and  _636
REMARK  259  A    between atoms: _636  and  _637
REMARK  260  A    between atoms: _647  and  _649
REMARK  261  A    between atoms: _649  and  _650
REMARK  262  A    between atoms: _653  and  _655
REMARK  263  A    between atoms: _655  and  _656
REMARK  264  A    between atoms: _655  and  _658
REMARK  265  A    between atoms: _658  and  _659
REMARK  266  A    between atoms: _662  and  _664
REMARK  267  A    between atoms: _664  and  _665
REMARK  268  A    between atoms: _667  and  _669
REMARK  269  A    between atoms: _669  and  _670
REMARK  270  A    between atoms: _673  and  _675
REMARK  271  A    between atoms: _675  and  _676
REMARK  272  A    between atoms: _675  and  _678
REMARK  273  A    between atoms: _678  and  _679
REMARK  274  A    between atoms: _682  and  _684
REMARK  275  A    between atoms: _684  and  _685
REMARK  276  A    between atoms: _684  and  _687
REMARK  277  A    between atoms: _687  and  _688
REMARK                            x       y       z     vdW  Elec       q    Type
REMARK                         _______ _______ _______ _____ _____    ______ ____
ROOT
ATOM      1  CA  MET A   1     -24.857 -26.392 -36.682  0.00  0.00    +0.134 C 
ENDROOT
BRANCH   1   2
ATOM      2  N   MET A   1     -26.018 -27.137 -37.196  0.00  0.00    -0.239 NA
ATOM      3  H   MET A   1     -26.957 -26.912 -36.810  0.00  0.00    +0.142 HD
ENDBRANCH   1   2
BRANCH   1   4
ATOM      4  C   MET A   1     -24.911 -26.261 -35.148  0.00  0.00    +0.224 C 
ATOM      5  O   MET A   1     -25.589 -25.357 -34.631  0.00  0.00    -0.287 OA
ENDBRANCH   1   4
BRANCH   1   6
ATOM      6  CB  MET A   1     -24.839 -24.996 -37.330  0.00  0.00    +0.037 C 
BRANCH   6   7
ATOM      7  CG  MET A   1     -23.547 -24.167 -37.122  0.00  0.00    +0.059 C 
BRANCH   7   8
ATOM      8  SD  MET A   1     -23.588 -22.633 -38.123  0.00  0.00    -0.139 S 
ATOM      9  CE  MET A   1     -21.921 -22.098 -37.879  0.00  0.00    +0.069 C 
ENDBRANCH   7   8
ENDBRANCH   6   7
ENDBRANCH   1   6
TORSDOF 5
REMARK  Name = ../refined-set-2016/3own/3own_pocket.pdb
REMARK  277 active torsions:
REMARK  status: ('A' for Active; 'I' for Inactive)
REMARK    1  A    between atoms: _1  and  _3
REMARK    2  A    between atoms: _3  and  _4
REMARK    3  A    between atoms: _3  and  _6
REMARK    4  A    between atoms: _6  and  _7
REMARK    5  A    between atoms: _12  and  _13
REMARK    6  A    between atoms: _15  and  _17
REMARK    7  A    between atoms: _17  and  _18
REMARK    8  A    between atoms: _17  and  _20
REMARK    9  A    between atoms: _20  and  _21
REMARK   10  A    between atoms: _24  and  _26
REMARK   11  A    between atoms: _26  and  _27
REMARK   12  A    between atoms: _26  and  _29
REMARK   13  A    between atoms: _29  and  _30
REMARK   14  A    between atoms: _33  and  _35
REMARK   15  A    between atoms: _35  and  _36
REMARK   16  A    between atoms: _35  and  _38
REMARK   17  A    between atoms: _38  and  _39
REMARK   18  A    between atoms: _39  and  _40
REMARK   19  A    between atoms: _45  and  _47
REMARK   20  A    between atoms: _47  and  _48
REMARK   21  A    between atoms: _47  and  _50
REMARK   22  A    between atoms: _50  and  _51
REMARK   23  A    between atoms: _56  and  _57
REMARK   24  A    between atoms: _59  and  _61
REMARK   25  A    between atoms: _61  and  _62
REMARK   26  A    between atoms: _61  and  _64
REMARK   27  A    between atoms: _67  and  _69
REMARK   28  A    between atoms: _69  and  _70
REMARK   29  A    between atoms: _69  and  _72
REMARK   30  A    between atoms: _72  and  _73
REMARK   31  A    between atoms: _79  and  _81
REMARK   32  A    between atoms: _81  and  _82
REMARK   33  A    between atoms: _81  and  _84
REMARK   34  A    between atoms: _84  and  _85
REMARK   35  A    between atoms: _88  and  _90
REMARK   36  A    between atoms: _90  and  _91
REMARK   37  A    between atoms: _90  and  _93
REMARK   38  A    between atoms: _93  and  _94
REMARK   39  A    between atoms: _97  and  _99
REMARK   40  A    between atoms: _99  and  _100
REMARK   41  A    between atoms: _102  and  _104
REMARK   42  A    between atoms: _104  and  _105
REMARK   43  A    between atoms: _104  and  _107
REMARK   44  A    between atoms: _107  and  _108
REMARK   45  A    between atoms: _110  and  _112
REMARK   46  A    between atoms: _112  and  _113
REMARK   47  A    between atoms: _112  and  _115
REMARK   48  A    between atoms: _115  and  _116
REMARK   49  A    between atoms: _118  and  _120
REMARK   50  A    between atoms: _120  and  _121
REMARK   51  A    between atoms: _120  and  _123
REMARK   52  A    between atoms: _123  and  _124
REMARK   53  A    between atoms: _129  and  _131
REMARK   54  A    between atoms: _131  and  _132
REMARK   55  A    between atoms: _131  and  _134
REMARK   56  A    between atoms: _134  and  _135
REMARK   57  A    between atoms: _145  and  _147
REMARK   58  A    between atoms: _147  and  _148
REMARK   59  A    between atoms: _147  and  _150
REMARK   60  A    between atoms: _150  and  _151
REMARK   61  A    between atoms: _154  and  _156
REMARK   62  A    between atoms: _156  and  _157
REMARK   63  A    between atoms: _156  and  _159
REMARK   64  A    between atoms: _159  and  _160
REMARK   65  A    between atoms: _163  and  _165
REMARK   66  A    between atoms: _165  and  _166
REMARK   67  A    between atoms: _165  and  _168
REMARK   68  A    between atoms: _168  and  _169
REMARK   69  A    between atoms: _169  and  _170
REMARK   70  A    between atoms: _170  and  _171
REMARK   71  A    between atoms: _180  and  _182
REMARK   72  A    between atoms: _182  and  _183
REMARK   73  A    between atoms: _182  and  _185
REMARK   74  A    between atoms: _185  and  _186
REMARK   75  A    between atoms: _191  and  _192
REMARK   76  A    between atoms: _194  and  _196
REMARK   77  A    between atoms: _196  and  _197
REMARK   78  A    between atoms: _196  and  _199
REMARK   79  A    between atoms: _199  and  _200
REMARK   80  A    between atoms: _202  and  _204
REMARK   81  A    between atoms: _204  and  _205
REMARK   82  A    between atoms: _204  and  _207
REMARK   83  A    between atoms: _207  and  _208
REMARK   84  A    between atoms: _211  and  _213
REMARK   85  A    between atoms: _213  and  _214
REMARK   86  A    between atoms: _216  and  _218
REMARK   87  A    between atoms: _218  and  _219
REMARK   88  A    between atoms: _218  and  _221
REMARK   89  A    between atoms: _224  and  _226
REMARK   90  A    between atoms: _226  and  _227
REMARK   91  A    between atoms: _226  and  _229
REMARK   92  A    between atoms: _229  and  _230
REMARK   93  A    between atoms: _230  and  _231
REMARK   94  A    between atoms: _233  and  _235
REMARK   95  A    between atoms: _235  and  _236
REMARK   96  A    between atoms: _239  and  _241
REMARK   97  A    between atoms: _241  and  _242
REMARK   98  A    between atoms: _241  and  _244
REMARK   99  A    between atoms: _244  and  _245
REMARK  100  A    between atoms: _249  and  _250
REMARK  101  A    between atoms: _255  and  _257
REMARK  102  A    between atoms: _257  and  _258
REMARK  103  A    between atoms: _257  and  _260
REMARK  104  A    between atoms: _260  and  _261
REMARK  105  A    between atoms: _267  and  _269
REMARK  106  A    between atoms: _269  and  _270
REMARK  107  A    between atoms: _269  and  _272
REMARK  108  A    between atoms: _272  and  _273
REMARK  109  A    between atoms: _273  and  _274
REMARK  110  A    between atoms: _276  and  _278
REMARK  111  A    between atoms: _278  and  _279
REMARK  112  A    between atoms: _278  and  _281
REMARK  113  A    between atoms: _281  and  _282
REMARK  114  A    between atoms: _285  and  _287
REMARK  115  A    between atoms: _287  and  _288
REMARK  116  A    between atoms: _291  and  _293
REMARK  117  A    between atoms: _293  and  _294
REMARK  118  A    between atoms: _293  and  _296
REMARK  119  A    between atoms: _296  and  _297
REMARK  120  A    between atoms: _297  and  _298
REMARK  121  A    between atoms: _301  and  _303
REMARK  122  A    between atoms: _303  and  _304
REMARK  123  A    between atoms: _303  and  _306
REMARK  124  A    between atoms: _306  and  _307
REMARK  125  A    between atoms: _313  and  _315
REMARK  126  A    between atoms: _315  and  _316
REMARK  127  A    between atoms: _315  and  _318
REMARK  128  A    between atoms: _318  and  _319
REMARK  129  A    between atoms: _322  and  _324
REMARK  130  A    between atoms: _324  and  _325
REMARK  131  A    between atoms: _327  and  _329
REMARK  132  A    between atoms: _329  and  _330
REMARK  133  A    between atoms: _329  and  _332
REMARK  134  A    between atoms: _335  and  _337
REMARK  135  A    between atoms: _337  and  _338
REMARK  136  A    between atoms: _337  and  _340
REMARK  137  A    between atoms: _343  and  _345
REMARK  138  A    between atoms: _345  and  _346
REMARK  139  A    between atoms: _345  and  _348
REMARK  140  A    between atoms: _348  and  _349
REMARK  141  A    between atoms: _349  and  _350
REMARK  142  A    between atoms: _352  and  _354
REMARK  143  A    between atoms: _354  and  _355
REMARK  144  A    between atoms: _357  and  _359
REMARK  145  A    between atoms: _359  and  _360
REMARK  146  A    between atoms: _359  and  _362
REMARK  147  A    between atoms: _362  and  _363
REMARK  148  A    between atoms: _369  and  _371
REMARK  149  A    between atoms: _371  and  _372
REMARK  150  A    between atoms: _371  and  _374
REMARK  151  A    between atoms: _374  and  _375
REMARK  152  A    between atoms: _375  and  _376
REMARK  153  A    between atoms: _379  and  _381
REMARK  154  A    between atoms: _381  and  _382
REMARK  155  A    between atoms: _381  and  _384
REMARK  156  A    between atoms: _384  and  _385
REMARK  157  A    between atoms: _385  and  _386
REMARK  158  A    between atoms: _391  and  _393
REMARK  159  A    between atoms: _393  and  _394
REMARK  160  A    between atoms: _397  and  _399
REMARK  161  A    between atoms: _399  and  _400
REMARK  162  A    between atoms: _399  and  _402
REMARK  163  A    between atoms: _402  and  _403
REMARK  164  A    between atoms: _406  and  _408
REMARK  165  A    between atoms: _408  and  _409
REMARK  166  A    between atoms: _411  and  _413
REMARK  167  A    between atoms: _413  and  _414
REMARK  168  A    between atoms: _413  and  _416
REMARK  169  A    between atoms: _419  and  _421
REMARK  170  A    between atoms: _421  and  _422
REMARK  171  A    between atoms: _421  and  _424
REMARK  172  A    between atoms: _424  and  _425
REMARK  173  A    between atoms: _425  and  _426
REMARK  174  A    between atoms: _431  and  _433
REMARK  175  A    between atoms: _433  and  _434
REMARK  176  A    between atoms: _433  and  _436
REMARK  177  A    between atoms: _436  and  _437
REMARK  178  A    between atoms: _440  and  _442
REMARK  179  A    between atoms: _442  and  _443
REMARK  180  A    between atoms: _442  and  _445
REMARK  181  A    between atoms: _448  and  _450
REMARK  182  A    between atoms: _450  and  _451
REMARK  183  A    between atoms: _450  and  _453
REMARK  184  A    between atoms: _453  and  _454
REMARK  185  A    between atoms: _457  and  _459
REMARK  186  A    between atoms: _459  and  _460
REMARK  187  A    between atoms: _459  and  _462
REMARK  188  A    between atoms: _462  and  _463
REMARK  189  A    between atoms: _466  and  _468
REMARK  190  A    between atoms: _468  and  _469
REMARK  191  A    between atoms: _471  and  _473
REMARK  192  A    between atoms: _473  and  _474
REMARK  193  A    between atoms: _477  and  _479
REMARK  194  A    between atoms: _479  and  _480
REMARK  195  A    between atoms: _479  and  _482
REMARK  196  A    between atoms: _482  and  _483
REMARK  197  A    between atoms: _485  and  _487
REMARK  198  A    between atoms: _487  and  _488
REMARK  199  A    between atoms: _487  and  _490
REMARK  200  A    between atoms: _490  and  _491
REMARK  201  A    between atoms: _496  and  _497
REMARK  202  A    between atoms: _499  and  _501
REMARK  203  A    between atoms: _501  and  _502
REMARK  204  A    between atoms: _501  and  _504
REMARK  205  A    between atoms: _504  and  _505
REMARK  206  A    between atoms: _508  and  _510
REMARK  207  A    between atoms: _510  and  _511
REMARK  208  A    between atoms: _510  and  _513
REMARK  209  A    between atoms: _513  and  _514
REMARK  210  A    between atoms: _516  and  _518
REMARK  211  A    between atoms: _518  and  _519
REMARK  212  A    between atoms: _521  and  _523
REMARK  213  A    between atoms: _523  and  _524
REMARK  214  A    between atoms: _523  and  _526
REMARK  215  A    between atoms: _526  and  _527
REMARK  216  A    between atoms: _533  and  _535
REMARK  217  A    between atoms: _535  and  _536
REMARK  218  A    between atoms: _535  and  _538
REMARK  219  A    between atoms: _538  and  _539
REMARK  220  A    between atoms: _542  and  _544
REMARK  221  A    between atoms: _544  and  _545
REMARK  222  A    between atoms: _548  and  _550
REMARK  223  A    between atoms: _550  and  _551
REMARK  224  A    between atoms: _550  and  _553
REMARK  225  A    between atoms: _553  and  _554
REMARK  226  A    between atoms: _557  and  _559
REMARK  227  A    between atoms: _559  and  _560
REMARK  228  A    between atoms: _559  and  _562
REMARK  229  A    between atoms: _562  and  _563
REMARK  230  A    between atoms: _568  and  _570
REMARK  231  A    between atoms: _570  and  _571
REMARK  232  A    between atoms: _574  and  _576
REMARK  233  A    between atoms: _576  and  _577
REMARK  234  A    between atoms: _576  and  _579
REMARK  235  A    between atoms: _579  and  _580
REMARK  236  A    between atoms: _580  and  _581
REMARK  237  A    between atoms: _583  and  _585
REMARK  238  A    between atoms: _585  and  _586
REMARK  239  A    between atoms: _585  and  _588
REMARK  240  A    between atoms: _588  and  _589
REMARK  241  A    between atoms: _592  and  _594
REMARK  242  A    between atoms: _594  and  _595
REMARK  243  A    between atoms: _594  and  _597
REMARK  244  A    between atoms: _597  and  _598
REMARK  245  A    between atoms: _602  and  _603
REMARK  246  A    between atoms: _608  and  _610
REMARK  247  A    between atoms: _610  and  _611
REMARK  248  A    between atoms: _610  and  _613
REMARK  249  A    between atoms: _613  and  _614
REMARK  250  A    between atoms: _617  and  _619
REMARK  251  A    between atoms: _619  and  _620
REMARK  252  A    between atoms: _622  and  _624
REMARK  253  A    between atoms: _624  and  _625
REMARK  254  A    between atoms: _624  and  _627
REMARK  255  A    between atoms: _627  and  _628
REMARK  256  A    between atoms: _631  and  _633
REMARK  257  A    between atoms: _633  and  _634
REMARK  258  A    between atoms: _633  and  _636
REMARK  259  A    between atoms: _636  and  _637
REMARK  260  A    between atoms: _647  and  _649
REMARK  261  A    between atoms: _649  and  _650
REMARK  262  A    between atoms: _653  and  _655
REMARK  263  A    between atoms: _655  and  _656
REMARK  264  A    between atoms: _655  and  _658
REMARK  265  A    between atoms: _658  and  _659
REMARK  266  A    between atoms: _662  and  _664
REMARK  267  A    between atoms: _664  and  _665
REMARK  268  A    between atoms: _667  and  _669
REMARK  269  A    between atoms: _669  and  _670
REMARK  270  A    between atoms: _673  and  _675
REMARK  271  A    between atoms: _675  and  _676
REMARK  272  A    between atoms: _675  and  _678
REMARK  273  A    between atoms: _678  and  _679
REMARK  274  A    between atoms: _682  and  _684
REMARK  275  A    between atoms: _684  and  _685
REMARK  276  A    between atoms: _684  and  _687
REMARK  277  A    between atoms: _687  and  _688
REMARK                            x       y       z     vdW  Elec       q    Type
REMARK                         _______ _______ _______ _____ _____    ______ ____
ROOT
ATOM      1  CA  ALA A   7     -16.994 -18.505 -33.335  0.00  0.00    +0.149 C 
ATOM      2  CB  ALA A   7     -17.202 -19.572 -34.414  0.00  0.00    +0.031 C 
ENDROOT
BRANCH   1   3
ATOM      3  C   ALA A   7     -17.439 -17.144 -33.862  0.00  0.00    +0.241 C 
ATOM      4  O   ALA A   7     -18.647 -16.883 -33.974  0.00  0.00    -0.273 OA
ATOM      5  N   GLU A   8     -16.468 -16.284 -34.158  0.00  0.00    -0.297 N 
ATOM      6  H   GLU A   8     -15.487 -16.539 -33.925  0.00  0.00    +0.150 HD
BRANCH   5   7
ATOM      7  CA  GLU A   8     -16.728 -14.986 -34.802  0.00  0.00    +0.149 C 
BRANCH   7   8
ATOM      8  C   GLU A   8     -17.022 -15.120 -36.302  0.00  0.00    +0.241 C 
ATOM      9  N   PHE A   9     -16.557 -16.219 -36.871  0.00  0.00    -0.297 N 
ATOM     10  H   PHE A   9     -16.058 -16.921 -36.288  0.00  0.00    +0.150 HD
ATOM     11  O   GLU A   8     -17.670 -14.246 -36.933  0.00  0.00    -0.273 OA
BRANCH   9  12
ATOM     12  CA  PHE A   9     -16.729 -16.469 -38.301  0.00  0.00    +0.153 C 
BRANCH  12  13
ATOM     13  C   PHE A   9     -17.940 -17.357 -38.549  0.00  0.00    +0.241 C 
ATOM     14  O   PHE A   9     -18.479 -18.023 -37.646  0.00  0.00    -0.273 OA
ATOM     15  N   ASP A  10     -18.337 -17.390 -39.812  0.00  0.00    -0.297 N 
ATOM     16  H   ASP A  10     -17.786 -16.882 -40.533  0.00  0.00    +0.150 HD
BRANCH  15  17
ATOM     17  CA  ASP A  10     -19.536 -18.127 -40.212  0.00  0.00    +0.160 C 
BRANCH  17  18
ATOM     18  C   ASP A  10     -19.244 -19.551 -40.681  0.00  0.00    +0.241 C 
ATOM     19  O   ASP A  10     -19.990 -20.471 -40.361  0.00  0.00    -0.273 OA
ATOM     20  N   GLY A  11     -18.216 -19.707 -41.505  0.00  0.00    -0.295 N 
ATOM     21  H   GLY A  11     -17.601 -18.897 -41.722  0.00  0.00    +0.150 HD
BRANCH  20  22
ATOM     22  CA  GLY A  11     -17.943 -21.002 -42.107  0.00  0.00    +0.176 C 
BRANCH  22  23
ATOM     23  C   GLY A  11     -16.460 -21.327 -42.275  0.00  0.00    +0.243 C 
ATOM     24  O   GLY A  11     -15.602 -20.730 -41.639  0.00  0.00    -0.273 OA
ATOM     25  N   VAL A  12     -16.182 -22.351 -43.084  0.00  0.00    -0.297 N 
ATOM     26  H   VAL A  12     -16.951 -22.791 -43.628  0.00  0.00    +0.150 HD
BRANCH  25  27
ATOM     27  CA  VAL A  12     -14.829 -22.866 -43.223  0.00  0.00    +0.149 C 
BRANCH  27  28
ATOM     28  C   VAL A  12     -14.473 -23.074 -44.695  0.00  0.00    +0.241 C 
ATOM     29  N   VAL A  13     -13.249 -22.710 -45.060  0.00  0.00    -0.298 N 
ATOM     30  H   VAL A  13     -12.647 -22.235 -44.357  0.00  0.00    +0.150 HD
ATOM     31  O   VAL A  12     -15.290 -23.538 -45.456  0.00  0.00    -0.273 OA
BRANCH  29  32
ATOM     32  CA  VAL A  13     -12.705 -22.939 -46.387  0.00  0.00    +0.137 C 
BRANCH  32  33
ATOM     33  CB  VAL A  13     -12.257 -21.634 -47.108  0.00  0.00    +0.026 C 
ATOM     34  CG2 VAL A  13     -13.466 -20.772 -47.392  0.00  0.00    +0.002 C 
ATOM     35  CG1 VAL A  13     -11.476 -21.995 -48.450  0.00  0.00    +0.002 C 
ENDBRANCH  32  33
BRANCH  32  36
ATOM     36  C   VAL A  13     -11.514 -23.905 -46.186  0.00  0.00    +0.227 C 
ATOM     37  O   VAL A  13     -10.469 -23.549 -45.645  0.00  0.00    -0.286 OA
ENDBRANCH  32  36
ENDBRANCH  29  32
ENDBRANCH  27  28
BRANCH  27  38
ATOM     38  CB  VAL A  12     -14.653 -24.234 -42.434  0.00  0.00    +0.027 C 
ATOM     39  CG2 VAL A  12     -14.875 -23.984 -40.909  0.00  0.00    +0.002 C 
ATOM     40  CG1 VAL A  12     -13.241 -24.888 -42.738  0.00  0.00    +0.002 C 
ENDBRANCH  27  38
ENDBRANCH  25  27
ENDBRANCH  22  23
ENDBRANCH  20  22
ENDBRANCH  17  18
BRANCH  17  41
ATOM     41  CB  ASP A  10     -20.264 -17.383 -41.328  0.00  0.00    +0.143 C 
BRANCH  41  42
ATOM     42  CG  ASP A  10     -20.611 -15.978 -40.935  0.00  0.00    +0.367 C 
ATOM     43  OD2 ASP A  10     -21.395 -15.803 -39.977  0.00  0.00    -0.246 OA
ATOM     44  OD1 ASP A  10     -20.071 -15.080 -41.595  0.00  0.00    -0.246 OA
ENDBRANCH  41  42
ENDBRANCH  17  41
ENDBRANCH  15  17
ENDBRANCH  12  13
BRANCH  12  45
ATOM     45  CB  PHE A   9     -15.470 -17.094 -38.927  0.00  0.00    +0.055 C 
BRANCH  45  46
ATOM     46  CG  PHE A   9     -14.963 -18.267 -38.164  0.00  0.00    -0.020 A 
ATOM     47  CD2 PHE A   9     -14.063 -18.075 -37.116  0.00  0.00    -0.004 A 
ATOM     48  CE2 PHE A   9     -13.583 -19.173 -36.377  0.00  0.00    -0.000 A 
ATOM     49  CZ  PHE A   9     -14.017 -20.456 -36.688  0.00  0.00    -0.000 A 
ATOM     50  CE1 PHE A   9     -14.911 -20.655 -37.749  0.00  0.00    -0.000 A 
ATOM     51  CD1 PHE A   9     -15.394 -19.558 -38.460  0.00  0.00    -0.004 A 
ENDBRANCH  45  46
ENDBRANCH  12  45
ENDBRANCH   9  12
ENDBRANCH   7   8
BRANCH   7  52
ATOM     52  CB  GLU A   8     -15.523 -14.063 -34.635  0.00  0.00    +0.041 C 
BRANCH  52  53
ATOM     53  CG  GLU A   8     -15.414 -13.480 -33.250  0.00  0.00    +0.116 C 
BRANCH  53  54
ATOM     54  CD  GLU A   8     -16.339 -12.268 -33.083  0.00  0.00    +0.365 C 
ATOM     55  OE2 GLU A   8     -15.784 -11.161 -32.894  0.00  0.00    -0.246 OA
ATOM     56  OE1 GLU A   8     -17.592 -12.395 -33.191  0.00  0.00    -0.246 OA
ENDBRANCH  53  54
ENDBRANCH  52  53
ENDBRANCH   7  52
ENDBRANCH   5   7
ENDBRANCH   1   3
BRANCH   1  59
ATOM     57  C   LEU A   6     -17.425 -18.529 -30.932  0.00  0.00    +0.241 C 
ATOM     58  O   LEU A   6     -16.414 -17.862 -30.656  0.00  0.00    -0.273 OA
ATOM     59  N   ALA A   7     -17.773 -18.869 -32.170  0.00  0.00    -0.297 N 
ATOM     60  H   ALA A   7     -18.644 -19.421 -32.307  0.00  0.00    +0.150 HD
BRANCH  57  61
ATOM     61  CA  LEU A   6     -18.330 -19.060 -29.839  0.00  0.00    +0.149 C 
BRANCH  61  64
ATOM     62  C   MET A   5     -20.720 -19.052 -30.468  0.00  0.00    +0.241 C 
ATOM     63  O   MET A   5     -20.869 -17.862 -30.196  0.00  0.00    -0.273 OA
ATOM     64  N   LEU A   6     -19.548 -19.676 -30.359  0.00  0.00    -0.297 N 
ATOM     65  H   LEU A   6     -19.497 -20.669 -30.665  0.00  0.00    +0.150 HD
BRANCH  62  66
ATOM     66  CA  MET A   5     -21.906 -19.911 -30.960  0.00  0.00    +0.149 C 
BRANCH  66  68
ATOM     67  C   PHE A   4     -20.754 -21.100 -32.734  0.00  0.00    +0.241 C 
ATOM     68  N   MET A   5     -21.444 -21.152 -31.605  0.00  0.00    -0.297 N 
ATOM     69  H   MET A   5     -21.661 -22.072 -31.172  0.00  0.00    +0.150 HD
ATOM     70  O   PHE A   4     -20.525 -20.049 -33.309  0.00  0.00    -0.273 OA
BRANCH  67  71
ATOM     71  CA  PHE A   4     -20.168 -22.384 -33.262  0.00  0.00    +0.153 C 
BRANCH  71  74
ATOM     72  C   PRO A   3     -18.872 -23.361 -31.469  0.00  0.00    +0.241 C 
ATOM     73  O   PRO A   3     -18.365 -22.282 -31.247  0.00  0.00    -0.273 OA
ATOM     74  N   PHE A   4     -19.890 -23.491 -32.314  0.00  0.00    -0.297 N 
ATOM     75  H   PHE A   4     -20.478 -24.349 -32.311  0.00  0.00    +0.150 HD
BRANCH  72  79
ATOM     76  C   LEU A   2     -19.948 -26.419 -30.522  0.00  0.00    +0.244 C 
ATOM     77  O   LEU A   2     -20.377 -27.512 -30.823  0.00  0.00    -0.273 OA
ATOM     78  N   PRO A   3     -18.877 -25.874 -31.124  0.00  0.00    -0.272 N 
ATOM     79  CA  PRO A   3     -18.326 -24.595 -30.726  0.00  0.00    +0.152 C 
ATOM     80  CB  PRO A   3     -16.857 -24.764 -31.084  0.00  0.00    +0.031 C 
ATOM     81  CG  PRO A   3     -16.923 -25.531 -32.356  0.00  0.00    +0.024 C 
ATOM     82  CD  PRO A   3     -18.072 -26.498 -32.191  0.00  0.00    +0.094 C 
BRANCH  76  83
ATOM     83  CA  LEU A   2     -20.618 -25.644 -29.398  0.00  0.00    +0.149 C 
BRANCH  83  85
ATOM     84  C   ALA A   1     -22.608 -24.354 -29.985  0.00  0.00    +0.238 C 
ATOM     85  N   LEU A   2     -22.053 -25.529 -29.677  0.00  0.00    -0.297 N 
ATOM     86  H   LEU A   2     -22.650 -26.379 -29.634  0.00  0.00    +0.150 HD
ATOM     87  O   ALA A   1     -21.987 -23.291 -29.892  0.00  0.00    -0.274 OA
BRANCH  84  88
ATOM     88  CA  ALA A   1     -24.076 -24.365 -30.437  0.00  0.00    +0.145 C 
ATOM     89  CB  ALA A   1     -25.048 -24.198 -29.246  0.00  0.00    +0.028 C 
BRANCH  88  90
ATOM     90  N   ALA A   1     -24.415 -25.595 -31.182  0.00  0.00    -0.238 NA
ATOM     91  H   ALA A   1     -25.148 -26.233 -30.811  0.00  0.00    +0.142 HD
ENDBRANCH  88  90
ENDBRANCH  84  88
ENDBRANCH  83  85
BRANCH  83  92
ATOM     92  CB  LEU A   2     -20.321 -26.338 -28.061  0.00  0.00    +0.029 C 
BRANCH  92  93
ATOM     93  CG  LEU A   2     -20.694 -25.744 -26.714  0.00  0.00    +0.002 C 
ATOM     94  CD2 LEU A   2     -19.751 -26.344 -25.660  0.00  0.00    +0.000 C 
ATOM     95  CD1 LEU A   2     -22.042 -26.256 -26.376  0.00  0.00    +0.000 C 
ENDBRANCH  92  93
ENDBRANCH  83  92
ENDBRANCH  76  83
ENDBRANCH  72  79
ENDBRANCH  71  74
BRANCH  71  96
ATOM     96  CB  PHE A   4     -20.898 -22.886 -34.508  0.00  0.00    +0.055 C 
BRANCH  96  97
ATOM     97  CG  PHE A   4     -20.169 -24.015 -35.176  0.00  0.00    -0.020 A 
ATOM     98  CD2 PHE A   4     -20.533 -25.343 -34.945  0.00  0.00    -0.004 A 
ATOM     99  CE2 PHE A   4     -19.822 -26.364 -35.546  0.00  0.00    -0.000 A 
ATOM    100  CZ  PHE A   4     -18.767 -26.071 -36.384  0.00  0.00    -0.000 A 
ATOM    101  CE1 PHE A   4     -18.416 -24.755 -36.632  0.00  0.00    -0.000 A 
ATOM    102  CD1 PHE A   4     -19.094 -23.740 -36.020  0.00  0.00    -0.004 A 
ENDBRANCH  96  97
ENDBRANCH  71  96
ENDBRANCH  67  71
ENDBRANCH  66  68
BRANCH  66 103
ATOM    103  CB  MET A   5     -22.903 -20.222 -29.828  0.00  0.00    +0.041 C 
BRANCH 103 104
ATOM    104  CG  MET A   5     -24.326 -20.469 -30.333  0.00  0.00    +0.060 C 
BRANCH 104 105
ATOM    105  SD  MET A   5     -25.042 -18.988 -31.046  0.00  0.00    -0.139 S 
ATOM    106  CE  MET A   5     -25.248 -17.950 -29.582  0.00  0.00    +0.069 C 
ENDBRANCH 104 105
ENDBRANCH 103 104
ENDBRANCH  66 103
ENDBRANCH  62  66
ENDBRANCH  61  64
BRANCH  61 107
ATOM    107  CB  LEU A   6     -17.538 -20.109 -29.053  0.00  0.00    +0.029 C 
BRANCH 107 108
ATOM    108  CG  LEU A   6     -17.727 -20.360 -27.549  0.00  0.00    +0.002 C 
ATOM    109  CD2 LEU A   6     -19.054 -19.937 -26.968  0.00  0.00    +0.000 C 
ATOM    110  CD1 LEU A   6     -17.316 -21.761 -27.092  0.00  0.00    +0.000 C 
ENDBRANCH 107 108
ENDBRANCH  61 107
ENDBRANCH  57  61
ENDBRANCH   1  59
TORSDOF 43
REMARK  Name = ../refined-set-2016/3own/3own_pocket.pdb
REMARK  277 active torsions:
REMARK  status: ('A' for Active; 'I' for Inactive)
REMARK    1  A    between atoms: _1  and  _3
REMARK    2  A    between atoms: _3  and  _4
REMARK    3  A    between atoms: _3  and  _6
REMARK    4  A    between atoms: _6  and  _7
REMARK    5  A    between atoms: _12  and  _13
REMARK    6  A    between atoms: _15  and  _17
REMARK    7  A    between atoms: _17  and  _18
REMARK    8  A    between atoms: _17  and  _20
REMARK    9  A    between atoms: _20  and  _21
REMARK   10  A    between atoms: _24  and  _26
REMARK   11  A    between atoms: _26  and  _27
REMARK   12  A    between atoms: _26  and  _29
REMARK   13  A    between atoms: _29  and  _30
REMARK   14  A    between atoms: _33  and  _35
REMARK   15  A    between atoms: _35  and  _36
REMARK   16  A    between atoms: _35  and  _38
REMARK   17  A    between atoms: _38  and  _39
REMARK   18  A    between atoms: _39  and  _40
REMARK   19  A    between atoms: _45  and  _47
REMARK   20  A    between atoms: _47  and  _48
REMARK   21  A    between atoms: _47  and  _50
REMARK   22  A    between atoms: _50  and  _51
REMARK   23  A    between atoms: _56  and  _57
REMARK   24  A    between atoms: _59  and  _61
REMARK   25  A    between atoms: _61  and  _62
REMARK   26  A    between atoms: _61  and  _64
REMARK   27  A    between atoms: _67  and  _69
REMARK   28  A    between atoms: _69  and  _70
REMARK   29  A    between atoms: _69  and  _72
REMARK   30  A    between atoms: _72  and  _73
REMARK   31  A    between atoms: _79  and  _81
REMARK   32  A    between atoms: _81  and  _82
REMARK   33  A    between atoms: _81  and  _84
REMARK   34  A    between atoms: _84  and  _85
REMARK   35  A    between atoms: _88  and  _90
REMARK   36  A    between atoms: _90  and  _91
REMARK   37  A    between atoms: _90  and  _93
REMARK   38  A    between atoms: _93  and  _94
REMARK   39  A    between atoms: _97  and  _99
REMARK   40  A    between atoms: _99  and  _100
REMARK   41  A    between atoms: _102  and  _104
REMARK   42  A    between atoms: _104  and  _105
REMARK   43  A    between atoms: _104  and  _107
REMARK   44  A    between atoms: _107  and  _108
REMARK   45  A    between atoms: _110  and  _112
REMARK   46  A    between atoms: _112  and  _113
REMARK   47  A    between atoms: _112  and  _115
REMARK   48  A    between atoms: _115  and  _116
REMARK   49  A    between atoms: _118  and  _120
REMARK   50  A    between atoms: _120  and  _121
REMARK   51  A    between atoms: _120  and  _123
REMARK   52  A    between atoms: _123  and  _124
REMARK   53  A    between atoms: _129  and  _131
REMARK   54  A    between atoms: _131  and  _132
REMARK   55  A    between atoms: _131  and  _134
REMARK   56  A    between atoms: _134  and  _135
REMARK   57  A    between atoms: _145  and  _147
REMARK   58  A    between atoms: _147  and  _148
REMARK   59  A    between atoms: _147  and  _150
REMARK   60  A    between atoms: _150  and  _151
REMARK   61  A    between atoms: _154  and  _156
REMARK   62  A    between atoms: _156  and  _157
REMARK   63  A    between atoms: _156  and  _159
REMARK   64  A    between atoms: _159  and  _160
REMARK   65  A    between atoms: _163  and  _165
REMARK   66  A    between atoms: _165  and  _166
REMARK   67  A    between atoms: _165  and  _168
REMARK   68  A    between atoms: _168  and  _169
REMARK   69  A    between atoms: _169  and  _170
REMARK   70  A    between atoms: _170  and  _171
REMARK   71  A    between atoms: _180  and  _182
REMARK   72  A    between atoms: _182  and  _183
REMARK   73  A    between atoms: _182  and  _185
REMARK   74  A    between atoms: _185  and  _186
REMARK   75  A    between atoms: _191  and  _192
REMARK   76  A    between atoms: _194  and  _196
REMARK   77  A    between atoms: _196  and  _197
REMARK   78  A    between atoms: _196  and  _199
REMARK   79  A    between atoms: _199  and  _200
REMARK   80  A    between atoms: _202  and  _204
REMARK   81  A    between atoms: _204  and  _205
REMARK   82  A    between atoms: _204  and  _207
REMARK   83  A    between atoms: _207  and  _208
REMARK   84  A    between atoms: _211  and  _213
REMARK   85  A    between atoms: _213  and  _214
REMARK   86  A    between atoms: _216  and  _218
REMARK   87  A    between atoms: _218  and  _219
REMARK   88  A    between atoms: _218  and  _221
REMARK   89  A    between atoms: _224  and  _226
REMARK   90  A    between atoms: _226  and  _227
REMARK   91  A    between atoms: _226  and  _229
REMARK   92  A    between atoms: _229  and  _230
REMARK   93  A    between atoms: _230  and  _231
REMARK   94  A    between atoms: _233  and  _235
REMARK   95  A    between atoms: _235  and  _236
REMARK   96  A    between atoms: _239  and  _241
REMARK   97  A    between atoms: _241  and  _242
REMARK   98  A    between atoms: _241  and  _244
REMARK   99  A    between atoms: _244  and  _245
REMARK  100  A    between atoms: _249  and  _250
REMARK  101  A    between atoms: _255  and  _257
REMARK  102  A    between atoms: _257  and  _258
REMARK  103  A    between atoms: _257  and  _260
REMARK  104  A    between atoms: _260  and  _261
REMARK  105  A    between atoms: _267  and  _269
REMARK  106  A    between atoms: _269  and  _270
REMARK  107  A    between atoms: _269  and  _272
REMARK  108  A    between atoms: _272  and  _273
REMARK  109  A    between atoms: _273  and  _274
REMARK  110  A    between atoms: _276  and  _278
REMARK  111  A    between atoms: _278  and  _279
REMARK  112  A    between atoms: _278  and  _281
REMARK  113  A    between atoms: _281  and  _282
REMARK  114  A    between atoms: _285  and  _287
REMARK  115  A    between atoms: _287  and  _288
REMARK  116  A    between atoms: _291  and  _293
REMARK  117  A    between atoms: _293  and  _294
REMARK  118  A    between atoms: _293  and  _296
REMARK  119  A    between atoms: _296  and  _297
REMARK  120  A    between atoms: _297  and  _298
REMARK  121  A    between atoms: _301  and  _303
REMARK  122  A    between atoms: _303  and  _304
REMARK  123  A    between atoms: _303  and  _306
REMARK  124  A    between atoms: _306  and  _307
REMARK  125  A    between atoms: _313  and  _315
REMARK  126  A    between atoms: _315  and  _316
REMARK  127  A    between atoms: _315  and  _318
REMARK  128  A    between atoms: _318  and  _319
REMARK  129  A    between atoms: _322  and  _324
REMARK  130  A    between atoms: _324  and  _325
REMARK  131  A    between atoms: _327  and  _329
REMARK  132  A    between atoms: _329  and  _330
REMARK  133  A    between atoms: _329  and  _332
REMARK  134  A    between atoms: _335  and  _337
REMARK  135  A    between atoms: _337  and  _338
REMARK  136  A    between atoms: _337  and  _340
REMARK  137  A    between atoms: _343  and  _345
REMARK  138  A    between atoms: _345  and  _346
REMARK  139  A    between atoms: _345  and  _348
REMARK  140  A    between atoms: _348  and  _349
REMARK  141  A    between atoms: _349  and  _350
REMARK  142  A    between atoms: _352  and  _354
REMARK  143  A    between atoms: _354  and  _355
REMARK  144  A    between atoms: _357  and  _359
REMARK  145  A    between atoms: _359  and  _360
REMARK  146  A    between atoms: _359  and  _362
REMARK  147  A    between atoms: _362  and  _363
REMARK  148  A    between atoms: _369  and  _371
REMARK  149  A    between atoms: _371  and  _372
REMARK  150  A    between atoms: _371  and  _374
REMARK  151  A    between atoms: _374  and  _375
REMARK  152  A    between atoms: _375  and  _376
REMARK  153  A    between atoms: _379  and  _381
REMARK  154  A    between atoms: _381  and  _382
REMARK  155  A    between atoms: _381  and  _384
REMARK  156  A    between atoms: _384  and  _385
REMARK  157  A    between atoms: _385  and  _386
REMARK  158  A    between atoms: _391  and  _393
REMARK  159  A    between atoms: _393  and  _394
REMARK  160  A    between atoms: _397  and  _399
REMARK  161  A    between atoms: _399  and  _400
REMARK  162  A    between atoms: _399  and  _402
REMARK  163  A    between atoms: _402  and  _403
REMARK  164  A    between atoms: _406  and  _408
REMARK  165  A    between atoms: _408  and  _409
REMARK  166  A    between atoms: _411  and  _413
REMARK  167  A    between atoms: _413  and  _414
REMARK  168  A    between atoms: _413  and  _416
REMARK  169  A    between atoms: _419  and  _421
REMARK  170  A    between atoms: _421  and  _422
REMARK  171  A    between atoms: _421  and  _424
REMARK  172  A    between atoms: _424  and  _425
REMARK  173  A    between atoms: _425  and  _426
REMARK  174  A    between atoms: _431  and  _433
REMARK  175  A    between atoms: _433  and  _434
REMARK  176  A    between atoms: _433  and  _436
REMARK  177  A    between atoms: _436  and  _437
REMARK  178  A    between atoms: _440  and  _442
REMARK  179  A    between atoms: _442  and  _443
REMARK  180  A    between atoms: _442  and  _445
REMARK  181  A    between atoms: _448  and  _450
REMARK  182  A    between atoms: _450  and  _451
REMARK  183  A    between atoms: _450  and  _453
REMARK  184  A    between atoms: _453  and  _454
REMARK  185  A    between atoms: _457  and  _459
REMARK  186  A    between atoms: _459  and  _460
REMARK  187  A    between atoms: _459  and  _462
REMARK  188  A    between atoms: _462  and  _463
REMARK  189  A    between atoms: _466  and  _468
REMARK  190  A    between atoms: _468  and  _469
REMARK  191  A    between atoms: _471  and  _473
REMARK  192  A    between atoms: _473  and  _474
REMARK  193  A    between atoms: _477  and  _479
REMARK  194  A    between atoms: _479  and  _480
REMARK  195  A    between atoms: _479  and  _482
REMARK  196  A    between atoms: _482  and  _483
REMARK  197  A    between atoms: _485  and  _487
REMARK  198  A    between atoms: _487  and  _488
REMARK  199  A    between atoms: _487  and  _490
REMARK  200  A    between atoms: _490  and  _491
REMARK  201  A    between atoms: _496  and  _497
REMARK  202  A    between atoms: _499  and  _501
REMARK  203  A    between atoms: _501  and  _502
REMARK  204  A    between atoms: _501  and  _504
REMARK  205  A    between atoms: _504  and  _505
REMARK  206  A    between atoms: _508  and  _510
REMARK  207  A    between atoms: _510  and  _511
REMARK  208  A    between atoms: _510  and  _513
REMARK  209  A    between atoms: _513  and  _514
REMARK  210  A    between atoms: _516  and  _518
REMARK  211  A    between atoms: _518  and  _519
REMARK  212  A    between atoms: _521  and  _523
REMARK  213  A    between atoms: _523  and  _524
REMARK  214  A    between atoms: _523  and  _526
REMARK  215  A    between atoms: _526  and  _527
REMARK  216  A    between atoms: _533  and  _535
REMARK  217  A    between atoms: _535  and  _536
REMARK  218  A    between atoms: _535  and  _538
REMARK  219  A    between atoms: _538  and  _539
REMARK  220  A    between atoms: _542  and  _544
REMARK  221  A    between atoms: _544  and  _545
REMARK  222  A    between atoms: _548  and  _550
REMARK  223  A    between atoms: _550  and  _551
REMARK  224  A    between atoms: _550  and  _553
REMARK  225  A    between atoms: _553  and  _554
REMARK  226  A    between atoms: _557  and  _559
REMARK  227  A    between atoms: _559  and  _560
REMARK  228  A    between atoms: _559  and  _562
REMARK  229  A    between atoms: _562  and  _563
REMARK  230  A    between atoms: _568  and  _570
REMARK  231  A    between atoms: _570  and  _571
REMARK  232  A    between atoms: _574  and  _576
REMARK  233  A    between atoms: _576  and  _577
REMARK  234  A    between atoms: _576  and  _579
REMARK  235  A    between atoms: _579  and  _580
REMARK  236  A    between atoms: _580  and  _581
REMARK  237  A    between atoms: _583  and  _585
REMARK  238  A    between atoms: _585  and  _586
REMARK  239  A    between atoms: _585  and  _588
REMARK  240  A    between atoms: _588  and  _589
REMARK  241  A    between atoms: _592  and  _594
REMARK  242  A    between atoms: _594  and  _595
REMARK  243  A    between atoms: _594  and  _597
REMARK  244  A    between atoms: _597  and  _598
REMARK  245  A    between atoms: _602  and  _603
REMARK  246  A    between atoms: _608  and  _610
REMARK  247  A    between atoms: _610  and  _611
REMARK  248  A    between atoms: _610  and  _613
REMARK  249  A    between atoms: _613  and  _614
REMARK  250  A    between atoms: _617  and  _619
REMARK  251  A    between atoms: _619  and  _620
REMARK  252  A    between atoms: _622  and  _624
REMARK  253  A    between atoms: _624  and  _625
REMARK  254  A    between atoms: _624  and  _627
REMARK  255  A    between atoms: _627  and  _628
REMARK  256  A    between atoms: _631  and  _633
REMARK  257  A    between atoms: _633  and  _634
REMARK  258  A    between atoms: _633  and  _636
REMARK  259  A    between atoms: _636  and  _637
REMARK  260  A    between atoms: _647  and  _649
REMARK  261  A    between atoms: _649  and  _650
REMARK  262  A    between atoms: _653  and  _655
REMARK  263  A    between atoms: _655  and  _656
REMARK  264  A    between atoms: _655  and  _658
REMARK  265  A    between atoms: _658  and  _659
REMARK  266  A    between atoms: _662  and  _664
REMARK  267  A    between atoms: _664  and  _665
REMARK  268  A    between atoms: _667  and  _669
REMARK  269  A    between atoms: _669  and  _670
REMARK  270  A    between atoms: _673  and  _675
REMARK  271  A    between atoms: _675  and  _676
REMARK  272  A    between atoms: _675  and  _678
REMARK  273  A    between atoms: _678  and  _679
REMARK  274  A    between atoms: _682  and  _684
REMARK  275  A    between atoms: _684  and  _685
REMARK  276  A    between atoms: _684  and  _687
REMARK  277  A    between atoms: _687  and  _688
REMARK                            x       y       z     vdW  Elec       q    Type
REMARK                         _______ _______ _______ _____ _____    ______ ____
ROOT
ATOM      1  C   GLY A   2      -6.465 -29.977 -49.031  0.00  0.00    +0.243 C 
ATOM      2  N   PHE A   3      -6.075 -31.238 -49.183  0.00  0.00    -0.298 N 
ATOM      3  H   PHE A   3      -5.745 -31.734 -48.330  0.00  0.00    +0.150 HD
ATOM      4  O   GLY A   2      -7.032 -29.321 -49.914  0.00  0.00    -0.273 OA
ENDROOT
BRANCH   1   5
ATOM      5  CA  GLY A   2      -6.270 -29.446 -47.607  0.00  0.00    +0.176 C 
BRANCH   5   7
ATOM      6  C   MET A   1      -6.329 -27.038 -47.922  0.00  0.00    +0.238 C 
ATOM      7  N   GLY A   2      -6.893 -28.134 -47.451  0.00  0.00    -0.296 N 
ATOM      8  H   GLY A   2      -7.805 -28.062 -46.956  0.00  0.00    +0.150 HD
ATOM      9  O   MET A   1      -5.188 -27.014 -48.404  0.00  0.00    -0.274 OA
BRANCH   6  10
ATOM     10  CA  MET A   1      -7.159 -25.748 -47.820  0.00  0.00    +0.146 C 
BRANCH  10  11
ATOM     11  N   MET A   1      -8.314 -25.928 -46.951  0.00  0.00    -0.238 NA
ATOM     12  H   MET A   1      -8.147 -26.064 -45.934  0.00  0.00    +0.142 HD
ENDBRANCH  10  11
BRANCH  10  13
ATOM     13  CB  MET A   1      -6.274 -24.604 -47.304  0.00  0.00    +0.038 C 
BRANCH  13  14
ATOM     14  CG  MET A   1      -6.983 -23.250 -47.204  0.00  0.00    +0.060 C 
BRANCH  14  15
ATOM     15  SD  MET A   1      -7.483 -22.605 -48.800  0.00  0.00    -0.139 S 
ATOM     16  CE  MET A   1      -5.889 -22.082 -49.453  0.00  0.00    +0.069 C 
ENDBRANCH  14  15
ENDBRANCH  13  14
ENDBRANCH  10  13
ENDBRANCH   6  10
ENDBRANCH   5   7
ENDBRANCH   1   5
BRANCH   2  17
ATOM     17  CA  PHE A   3      -6.065 -31.986 -50.418  0.00  0.00    +0.141 C 
BRANCH  17  18
ATOM     18  C   PHE A   3      -7.369 -32.717 -50.635  0.00  0.00    +0.227 C 
ATOM     19  O   PHE A   3      -8.154 -32.979 -49.710  0.00  0.00    -0.286 OA
ENDBRANCH  17  18
BRANCH  17  20
ATOM     20  CB  PHE A   3      -4.962 -33.065 -50.308  0.00  0.00    +0.054 C 
BRANCH  20  21
ATOM     21  CG  PHE A   3      -3.549 -32.539 -50.308  0.00  0.00    -0.020 A 
ATOM     22  CD2 PHE A   3      -2.922 -32.136 -49.123  0.00  0.00    -0.004 A 
ATOM     23  CE2 PHE A   3      -1.577 -31.721 -49.115  0.00  0.00    -0.000 A 
ATOM     24  CZ  PHE A   3      -0.858 -31.696 -50.315  0.00  0.00    -0.000 A 
ATOM     25  CE1 PHE A   3      -1.474 -32.107 -51.497  0.00  0.00    -0.000 A 
ATOM     26  CD1 PHE A   3      -2.803 -32.548 -51.488  0.00  0.00    -0.004 A 
ENDBRANCH  20  21
ENDBRANCH  17  20
ENDBRANCH   2  17
TORSDOF 11
REMARK  Name = ../refined-set-2016/3own/3own_pocket.pdb
REMARK  277 active torsions:
REMARK  status: ('A' for Active; 'I' for Inactive)
REMARK    1  A    between atoms: _1  and  _3
REMARK    2  A    between atoms: _3  and  _4
REMARK    3  A    between atoms: _3  and  _6
REMARK    4  A    between atoms: _6  and  _7
REMARK    5  A    between atoms: _12  and  _13
REMARK    6  A    between atoms: _15  and  _17
REMARK    7  A    between atoms: _17  and  _18
REMARK    8  A    between atoms: _17  and  _20
REMARK    9  A    between atoms: _20  and  _21
REMARK   10  A    between atoms: _24  and  _26
REMARK   11  A    between atoms: _26  and  _27
REMARK   12  A    between atoms: _26  and  _29
REMARK   13  A    between atoms: _29  and  _30
REMARK   14  A    between atoms: _33  and  _35
REMARK   15  A    between atoms: _35  and  _36
REMARK   16  A    between atoms: _35  and  _38
REMARK   17  A    between atoms: _38  and  _39
REMARK   18  A    between atoms: _39  and  _40
REMARK   19  A    between atoms: _45  and  _47
REMARK   20  A    between atoms: _47  and  _48
REMARK   21  A    between atoms: _47  and  _50
REMARK   22  A    between atoms: _50  and  _51
REMARK   23  A    between atoms: _56  and  _57
REMARK   24  A    between atoms: _59  and  _61
REMARK   25  A    between atoms: _61  and  _62
REMARK   26  A    between atoms: _61  and  _64
REMARK   27  A    between atoms: _67  and  _69
REMARK   28  A    between atoms: _69  and  _70
REMARK   29  A    between atoms: _69  and  _72
REMARK   30  A    between atoms: _72  and  _73
REMARK   31  A    between atoms: _79  and  _81
REMARK   32  A    between atoms: _81  and  _82
REMARK   33  A    between atoms: _81  and  _84
REMARK   34  A    between atoms: _84  and  _85
REMARK   35  A    between atoms: _88  and  _90
REMARK   36  A    between atoms: _90  and  _91
REMARK   37  A    between atoms: _90  and  _93
REMARK   38  A    between atoms: _93  and  _94
REMARK   39  A    between atoms: _97  and  _99
REMARK   40  A    between atoms: _99  and  _100
REMARK   41  A    between atoms: _102  and  _104
REMARK   42  A    between atoms: _104  and  _105
REMARK   43  A    between atoms: _104  and  _107
REMARK   44  A    between atoms: _107  and  _108
REMARK   45  A    between atoms: _110  and  _112
REMARK   46  A    between atoms: _112  and  _113
REMARK   47  A    between atoms: _112  and  _115
REMARK   48  A    between atoms: _115  and  _116
REMARK   49  A    between atoms: _118  and  _120
REMARK   50  A    between atoms: _120  and  _121
REMARK   51  A    between atoms: _120  and  _123
REMARK   52  A    between atoms: _123  and  _124
REMARK   53  A    between atoms: _129  and  _131
REMARK   54  A    between atoms: _131  and  _132
REMARK   55  A    between atoms: _131  and  _134
REMARK   56  A    between atoms: _134  and  _135
REMARK   57  A    between atoms: _145  and  _147
REMARK   58  A    between atoms: _147  and  _148
REMARK   59  A    between atoms: _147  and  _150
REMARK   60  A    between atoms: _150  and  _151
REMARK   61  A    between atoms: _154  and  _156
REMARK   62  A    between atoms: _156  and  _157
REMARK   63  A    between atoms: _156  and  _159
REMARK   64  A    between atoms: _159  and  _160
REMARK   65  A    between atoms: _163  and  _165
REMARK   66  A    between atoms: _165  and  _166
REMARK   67  A    between atoms: _165  and  _168
REMARK   68  A    between atoms: _168  and  _169
REMARK   69  A    between atoms: _169  and  _170
REMARK   70  A    between atoms: _170  and  _171
REMARK   71  A    between atoms: _180  and  _182
REMARK   72  A    between atoms: _182  and  _183
REMARK   73  A    between atoms: _182  and  _185
REMARK   74  A    between atoms: _185  and  _186
REMARK   75  A    between atoms: _191  and  _192
REMARK   76  A    between atoms: _194  and  _196
REMARK   77  A    between atoms: _196  and  _197
REMARK   78  A    between atoms: _196  and  _199
REMARK   79  A    between atoms: _199  and  _200
REMARK   80  A    between atoms: _202  and  _204
REMARK   81  A    between atoms: _204  and  _205
REMARK   82  A    between atoms: _204  and  _207
REMARK   83  A    between atoms: _207  and  _208
REMARK   84  A    between atoms: _211  and  _213
REMARK   85  A    between atoms: _213  and  _214
REMARK   86  A    between atoms: _216  and  _218
REMARK   87  A    between atoms: _218  and  _219
REMARK   88  A    between atoms: _218  and  _221
REMARK   89  A    between atoms: _224  and  _226
REMARK   90  A    between atoms: _226  and  _227
REMARK   91  A    between atoms: _226  and  _229
REMARK   92  A    between atoms: _229  and  _230
REMARK   93  A    between atoms: _230  and  _231
REMARK   94  A    between atoms: _233  and  _235
REMARK   95  A    between atoms: _235  and  _236
REMARK   96  A    between atoms: _239  and  _241
REMARK   97  A    between atoms: _241  and  _242
REMARK   98  A    between atoms: _241  and  _244
REMARK   99  A    between atoms: _244  and  _245
REMARK  100  A    between atoms: _249  and  _250
REMARK  101  A    between atoms: _255  and  _257
REMARK  102  A    between atoms: _257  and  _258
REMARK  103  A    between atoms: _257  and  _260
REMARK  104  A    between atoms: _260  and  _261
REMARK  105  A    between atoms: _267  and  _269
REMARK  106  A    between atoms: _269  and  _270
REMARK  107  A    between atoms: _269  and  _272
REMARK  108  A    between atoms: _272  and  _273
REMARK  109  A    between atoms: _273  and  _274
REMARK  110  A    between atoms: _276  and  _278
REMARK  111  A    between atoms: _278  and  _279
REMARK  112  A    between atoms: _278  and  _281
REMARK  113  A    between atoms: _281  and  _282
REMARK  114  A    between atoms: _285  and  _287
REMARK  115  A    between atoms: _287  and  _288
REMARK  116  A    between atoms: _291  and  _293
REMARK  117  A    between atoms: _293  and  _294
REMARK  118  A    between atoms: _293  and  _296
REMARK  119  A    between atoms: _296  and  _297
REMARK  120  A    between atoms: _297  and  _298
REMARK  121  A    between atoms: _301  and  _303
REMARK  122  A    between atoms: _303  and  _304
REMARK  123  A    between atoms: _303  and  _306
REMARK  124  A    between atoms: _306  and  _307
REMARK  125  A    between atoms: _313  and  _315
REMARK  126  A    between atoms: _315  and  _316
REMARK  127  A    between atoms: _315  and  _318
REMARK  128  A    between atoms: _318  and  _319
REMARK  129  A    between atoms: _322  and  _324
REMARK  130  A    between atoms: _324  and  _325
REMARK  131  A    between atoms: _327  and  _329
REMARK  132  A    between atoms: _329  and  _330
REMARK  133  A    between atoms: _329  and  _332
REMARK  134  A    between atoms: _335  and  _337
REMARK  135  A    between atoms: _337  and  _338
REMARK  136  A    between atoms: _337  and  _340
REMARK  137  A    between atoms: _343  and  _345
REMARK  138  A    between atoms: _345  and  _346
REMARK  139  A    between atoms: _345  and  _348
REMARK  140  A    between atoms: _348  and  _349
REMARK  141  A    between atoms: _349  and  _350
REMARK  142  A    between atoms: _352  and  _354
REMARK  143  A    between atoms: _354  and  _355
REMARK  144  A    between atoms: _357  and  _359
REMARK  145  A    between atoms: _359  and  _360
REMARK  146  A    between atoms: _359  and  _362
REMARK  147  A    between atoms: _362  and  _363
REMARK  148  A    between atoms: _369  and  _371
REMARK  149  A    between atoms: _371  and  _372
REMARK  150  A    between atoms: _371  and  _374
REMARK  151  A    between atoms: _374  and  _375
REMARK  152  A    between atoms: _375  and  _376
REMARK  153  A    between atoms: _379  and  _381
REMARK  154  A    between atoms: _381  and  _382
REMARK  155  A    between atoms: _381  and  _384
REMARK  156  A    between atoms: _384  and  _385
REMARK  157  A    between atoms: _385  and  _386
REMARK  158  A    between atoms: _391  and  _393
REMARK  159  A    between atoms: _393  and  _394
REMARK  160  A    between atoms: _397  and  _399
REMARK  161  A    between atoms: _399  and  _400
REMARK  162  A    between atoms: _399  and  _402
REMARK  163  A    between atoms: _402  and  _403
REMARK  164  A    between atoms: _406  and  _408
REMARK  165  A    between atoms: _408  and  _409
REMARK  166  A    between atoms: _411  and  _413
REMARK  167  A    between atoms: _413  and  _414
REMARK  168  A    between atoms: _413  and  _416
REMARK  169  A    between atoms: _419  and  _421
REMARK  170  A    between atoms: _421  and  _422
REMARK  171  A    between atoms: _421  and  _424
REMARK  172  A    between atoms: _424  and  _425
REMARK  173  A    between atoms: _425  and  _426
REMARK  174  A    between atoms: _431  and  _433
REMARK  175  A    between atoms: _433  and  _434
REMARK  176  A    between atoms: _433  and  _436
REMARK  177  A    between atoms: _436  and  _437
REMARK  178  A    between atoms: _440  and  _442
REMARK  179  A    between atoms: _442  and  _443
REMARK  180  A    between atoms: _442  and  _445
REMARK  181  A    between atoms: _448  and  _450
REMARK  182  A    between atoms: _450  and  _451
REMARK  183  A    between atoms: _450  and  _453
REMARK  184  A    between atoms: _453  and  _454
REMARK  185  A    between atoms: _457  and  _459
REMARK  186  A    between atoms: _459  and  _460
REMARK  187  A    between atoms: _459  and  _462
REMARK  188  A    between atoms: _462  and  _463
REMARK  189  A    between atoms: _466  and  _468
REMARK  190  A    between atoms: _468  and  _469
REMARK  191  A    between atoms: _471  and  _473
REMARK  192  A    between atoms: _473  and  _474
REMARK  193  A    between atoms: _477  and  _479
REMARK  194  A    between atoms: _479  and  _480
REMARK  195  A    between atoms: _479  and  _482
REMARK  196  A    between atoms: _482  and  _483
REMARK  197  A    between atoms: _485  and  _487
REMARK  198  A    between atoms: _487  and  _488
REMARK  199  A    between atoms: _487  and  _490
REMARK  200  A    between atoms: _490  and  _491
REMARK  201  A    between atoms: _496  and  _497
REMARK  202  A    between atoms: _499  and  _501
REMARK  203  A    between atoms: _501  and  _502
REMARK  204  A    between atoms: _501  and  _504
REMARK  205  A    between atoms: _504  and  _505
REMARK  206  A    between atoms: _508  and  _510
REMARK  207  A    between atoms: _510  and  _511
REMARK  208  A    between atoms: _510  and  _513
REMARK  209  A    between atoms: _513  and  _514
REMARK  210  A    between atoms: _516  and  _518
REMARK  211  A    between atoms: _518  and  _519
REMARK  212  A    between atoms: _521  and  _523
REMARK  213  A    between atoms: _523  and  _524
REMARK  214  A    between atoms: _523  and  _526
REMARK  215  A    between atoms: _526  and  _527
REMARK  216  A    between atoms: _533  and  _535
REMARK  217  A    between atoms: _535  and  _536
REMARK  218  A    between atoms: _535  and  _538
REMARK  219  A    between atoms: _538  and  _539
REMARK  220  A    between atoms: _542  and  _544
REMARK  221  A    between atoms: _544  and  _545
REMARK  222  A    between atoms: _548  and  _550
REMARK  223  A    between atoms: _550  and  _551
REMARK  224  A    between atoms: _550  and  _553
REMARK  225  A    between atoms: _553  and  _554
REMARK  226  A    between atoms: _557  and  _559
REMARK  227  A    between atoms: _559  and  _560
REMARK  228  A    between atoms: _559  and  _562
REMARK  229  A    between atoms: _562  and  _563
REMARK  230  A    between atoms: _568  and  _570
REMARK  231  A    between atoms: _570  and  _571
REMARK  232  A    between atoms: _574  and  _576
REMARK  233  A    between atoms: _576  and  _577
REMARK  234  A    between atoms: _576  and  _579
REMARK  235  A    between atoms: _579  and  _580
REMARK  236  A    between atoms: _580  and  _581
REMARK  237  A    between atoms: _583  and  _585
REMARK  238  A    between atoms: _585  and  _586
REMARK  239  A    between atoms: _585  and  _588
REMARK  240  A    between atoms: _588  and  _589
REMARK  241  A    between atoms: _592  and  _594
REMARK  242  A    between atoms: _594  and  _595
REMARK  243  A    between atoms: _594  and  _597
REMARK  244  A    between atoms: _597  and  _598
REMARK  245  A    between atoms: _602  and  _603
REMARK  246  A    between atoms: _608  and  _610
REMARK  247  A    between atoms: _610  and  _611
REMARK  248  A    between atoms: _610  and  _613
REMARK  249  A    between atoms: _613  and  _614
REMARK  250  A    between atoms: _617  and  _619
REMARK  251  A    between atoms: _619  and  _620
REMARK  252  A    between atoms: _622  and  _624
REMARK  253  A    between atoms: _624  and  _625
REMARK  254  A    between atoms: _624  and  _627
REMARK  255  A    between atoms: _627  and  _628
REMARK  256  A    between atoms: _631  and  _633
REMARK  257  A    between atoms: _633  and  _634
REMARK  258  A    between atoms: _633  and  _636
REMARK  259  A    between atoms: _636  and  _637
REMARK  260  A    between atoms: _647  and  _649
REMARK  261  A    between atoms: _649  and  _650
REMARK  262  A    between atoms: _653  and  _655
REMARK  263  A    between atoms: _655  and  _656
REMARK  264  A    between atoms: _655  and  _658
REMARK  265  A    between atoms: _658  and  _659
REMARK  266  A    between atoms: _662  and  _664
REMARK  267  A    between atoms: _664  and  _665
REMARK  268  A    between atoms: _667  and  _669
REMARK  269  A    between atoms: _669  and  _670
REMARK  270  A    between atoms: _673  and  _675
REMARK  271  A    between atoms: _675  and  _676
REMARK  272  A    between atoms: _675  and  _678
REMARK  273  A    between atoms: _678  and  _679
REMARK  274  A    between atoms: _682  and  _684
REMARK  275  A    between atoms: _684  and  _685
REMARK  276  A    between atoms: _684  and  _687
REMARK  277  A    between atoms: _687  and  _688
REMARK                            x       y       z     vdW  Elec       q    Type
REMARK                         _______ _______ _______ _____ _____    ______ ____
ROOT
ATOM      1  CA  GLN A   2      -9.304 -35.560 -47.120  0.00  0.00    +0.149 C 
ENDROOT
BRANCH   1   3
ATOM      2  C   GLU A   1      -8.628 -36.953 -48.999  0.00  0.00    +0.238 C 
ATOM      3  N   GLN A   2      -8.587 -35.788 -48.356  0.00  0.00    -0.297 N 
ATOM      4  H   GLN A   2      -8.019 -35.014 -48.756  0.00  0.00    +0.150 HD
ATOM      5  O   GLU A   1      -9.261 -37.928 -48.579  0.00  0.00    -0.274 OA
BRANCH   2   6
ATOM      6  CA  GLU A   1      -7.840 -37.022 -50.307  0.00  0.00    +0.145 C 
BRANCH   6   7
ATOM      7  N   GLU A   1      -7.841 -35.763 -51.066  0.00  0.00    -0.238 NA
ATOM      8  H   GLU A   1      -6.930 -35.323 -51.307  0.00  0.00    +0.142 HD
ENDBRANCH   6   7
BRANCH   6   9
ATOM      9  CB  GLU A   1      -6.397 -37.478 -50.025  0.00  0.00    +0.038 C 
BRANCH   9  10
ATOM     10  CG  GLU A   1      -5.636 -38.034 -51.267  0.00  0.00    +0.116 C 
BRANCH  10  11
ATOM     11  CD  GLU A   1      -4.967 -36.981 -52.167  0.00  0.00    +0.365 C 
ATOM     12  OE2 GLU A   1      -5.264 -35.780 -52.104  0.00  0.00    -0.246 OA
ATOM     13  OE1 GLU A   1      -4.098 -37.351 -52.982  0.00  0.00    -0.246 OA
ENDBRANCH  10  11
ENDBRANCH   9  10
ENDBRANCH   6   9
ENDBRANCH   2   6
ENDBRANCH   1   3
BRANCH   1  14
ATOM     14  C   GLN A   2     -10.681 -34.917 -47.282  0.00  0.00    +0.241 C 
ATOM     15  O   GLN A   2     -11.373 -34.731 -46.278  0.00  0.00    -0.273 OA
ATOM     16  N   ALA A   3     -11.080 -34.580 -48.514  0.00  0.00    -0.297 N 
ATOM     17  H   ALA A   3     -10.420 -34.719 -49.306  0.00  0.00    +0.150 HD
BRANCH  16  18
ATOM     18  CA  ALA A   3     -12.428 -34.015 -48.800  0.00  0.00    +0.149 C 
ATOM     19  CB  ALA A   3     -12.513 -33.406 -50.210  0.00  0.00    +0.031 C 
BRANCH  18  20
ATOM     20  C   ALA A   3     -13.542 -35.040 -48.595  0.00  0.00    +0.241 C 
ATOM     21  N   ILE A   4     -14.574 -34.643 -47.857  0.00  0.00    -0.298 N 
ATOM     22  H   ILE A   4     -14.567 -33.683 -47.456  0.00  0.00    +0.150 HD
ATOM     23  O   ALA A   3     -13.461 -36.174 -49.063  0.00  0.00    -0.273 OA
BRANCH  21  24
ATOM     24  CA  ILE A   4     -15.710 -35.506 -47.593  0.00  0.00    +0.137 C 
BRANCH  24  25
ATOM     25  C   ILE A   4     -16.587 -35.379 -48.824  0.00  0.00    +0.227 C 
ATOM     26  O   ILE A   4     -16.753 -34.280 -49.369  0.00  0.00    -0.286 OA
ENDBRANCH  24  25
BRANCH  24  27
ATOM     27  CB  ILE A   4     -16.480 -35.087 -46.296  0.00  0.00    +0.026 C 
ATOM     28  CG2 ILE A   4     -17.748 -35.921 -46.078  0.00  0.00    +0.002 C 
BRANCH  27  29
ATOM     29  CG1 ILE A   4     -15.553 -35.153 -45.074  0.00  0.00    +0.002 C 
ATOM     30  CD1 ILE A   4     -14.805 -36.507 -44.860  0.00  0.00    +0.000 C 
ENDBRANCH  27  29
ENDBRANCH  24  27
ENDBRANCH  21  24
ENDBRANCH  18  20
ENDBRANCH  16  18
ENDBRANCH   1  14
BRANCH   1  31
ATOM     31  CB  GLN A   2      -8.455 -34.718 -46.160  0.00  0.00    +0.039 C 
BRANCH  31  32
ATOM     32  CG  GLN A   2      -7.149 -35.368 -45.706  0.00  0.00    +0.087 C 
BRANCH  32  33
ATOM     33  CD  GLN A   2      -7.395 -36.709 -45.040  0.00  0.00    +0.219 C 
ATOM     34  NE2 GLN A   2      -8.280 -36.716 -44.065  0.00  0.00    -0.329 N 
ATOM     35 HE21 GLN A   2      -8.540 -37.612 -43.605  0.00  0.00    +0.145 HD
ATOM     36 HE22 GLN A   2      -8.719 -35.826 -43.754  0.00  0.00    +0.145 HD
ATOM     37  OE1 GLN A   2      -6.844 -37.740 -45.447  0.00  0.00    -0.275 OA
ENDBRANCH  32  33
ENDBRANCH  31  32
ENDBRANCH   1  31
TORSDOF 16
REMARK  Name = ../refined-set-2016/3own/3own_pocket.pdb
REMARK  277 active torsions:
REMARK  status: ('A' for Active; 'I' for Inactive)
REMARK    1  A    between atoms: _1  and  _3
REMARK    2  A    between atoms: _3  and  _4
REMARK    3  A    between atoms: _3  and  _6
REMARK    4  A    between atoms: _6  and  _7
REMARK    5  A    between atoms: _12  and  _13
REMARK    6  A    between atoms: _15  and  _17
REMARK    7  A    between atoms: _17  and  _18
REMARK    8  A    between atoms: _17  and  _20
REMARK    9  A    between atoms: _20  and  _21
REMARK   10  A    between atoms: _24  and  _26
REMARK   11  A    between atoms: _26  and  _27
REMARK   12  A    between atoms: _26  and  _29
REMARK   13  A    between atoms: _29  and  _30
REMARK   14  A    between atoms: _33  and  _35
REMARK   15  A    between atoms: _35  and  _36
REMARK   16  A    between atoms: _35  and  _38
REMARK   17  A    between atoms: _38  and  _39
REMARK   18  A    between atoms: _39  and  _40
REMARK   19  A    between atoms: _45  and  _47
REMARK   20  A    between atoms: _47  and  _48
REMARK   21  A    between atoms: _47  and  _50
REMARK   22  A    between atoms: _50  and  _51
REMARK   23  A    between atoms: _56  and  _57
REMARK   24  A    between atoms: _59  and  _61
REMARK   25  A    between atoms: _61  and  _62
REMARK   26  A    between atoms: _61  and  _64
REMARK   27  A    between atoms: _67  and  _69
REMARK   28  A    between atoms: _69  and  _70
REMARK   29  A    between atoms: _69  and  _72
REMARK   30  A    between atoms: _72  and  _73
REMARK   31  A    between atoms: _79  and  _81
REMARK   32  A    between atoms: _81  and  _82
REMARK   33  A    between atoms: _81  and  _84
REMARK   34  A    between atoms: _84  and  _85
REMARK   35  A    between atoms: _88  and  _90
REMARK   36  A    between atoms: _90  and  _91
REMARK   37  A    between atoms: _90  and  _93
REMARK   38  A    between atoms: _93  and  _94
REMARK   39  A    between atoms: _97  and  _99
REMARK   40  A    between atoms: _99  and  _100
REMARK   41  A    between atoms: _102  and  _104
REMARK   42  A    between atoms: _104  and  _105
REMARK   43  A    between atoms: _104  and  _107
REMARK   44  A    between atoms: _107  and  _108
REMARK   45  A    between atoms: _110  and  _112
REMARK   46  A    between atoms: _112  and  _113
REMARK   47  A    between atoms: _112  and  _115
REMARK   48  A    between atoms: _115  and  _116
REMARK   49  A    between atoms: _118  and  _120
REMARK   50  A    between atoms: _120  and  _121
REMARK   51  A    between atoms: _120  and  _123
REMARK   52  A    between atoms: _123  and  _124
REMARK   53  A    between atoms: _129  and  _131
REMARK   54  A    between atoms: _131  and  _132
REMARK   55  A    between atoms: _131  and  _134
REMARK   56  A    between atoms: _134  and  _135
REMARK   57  A    between atoms: _145  and  _147
REMARK   58  A    between atoms: _147  and  _148
REMARK   59  A    between atoms: _147  and  _150
REMARK   60  A    between atoms: _150  and  _151
REMARK   61  A    between atoms: _154  and  _156
REMARK   62  A    between atoms: _156  and  _157
REMARK   63  A    between atoms: _156  and  _159
REMARK   64  A    between atoms: _159  and  _160
REMARK   65  A    between atoms: _163  and  _165
REMARK   66  A    between atoms: _165  and  _166
REMARK   67  A    between atoms: _165  and  _168
REMARK   68  A    between atoms: _168  and  _169
REMARK   69  A    between atoms: _169  and  _170
REMARK   70  A    between atoms: _170  and  _171
REMARK   71  A    between atoms: _180  and  _182
REMARK   72  A    between atoms: _182  and  _183
REMARK   73  A    between atoms: _182  and  _185
REMARK   74  A    between atoms: _185  and  _186
REMARK   75  A    between atoms: _191  and  _192
REMARK   76  A    between atoms: _194  and  _196
REMARK   77  A    between atoms: _196  and  _197
REMARK   78  A    between atoms: _196  and  _199
REMARK   79  A    between atoms: _199  and  _200
REMARK   80  A    between atoms: _202  and  _204
REMARK   81  A    between atoms: _204  and  _205
REMARK   82  A    between atoms: _204  and  _207
REMARK   83  A    between atoms: _207  and  _208
REMARK   84  A    between atoms: _211  and  _213
REMARK   85  A    between atoms: _213  and  _214
REMARK   86  A    between atoms: _216  and  _218
REMARK   87  A    between atoms: _218  and  _219
REMARK   88  A    between atoms: _218  and  _221
REMARK   89  A    between atoms: _224  and  _226
REMARK   90  A    between atoms: _226  and  _227
REMARK   91  A    between atoms: _226  and  _229
REMARK   92  A    between atoms: _229  and  _230
REMARK   93  A    between atoms: _230  and  _231
REMARK   94  A    between atoms: _233  and  _235
REMARK   95  A    between atoms: _235  and  _236
REMARK   96  A    between atoms: _239  and  _241
REMARK   97  A    between atoms: _241  and  _242
REMARK   98  A    between atoms: _241  and  _244
REMARK   99  A    between atoms: _244  and  _245
REMARK  100  A    between atoms: _249  and  _250
REMARK  101  A    between atoms: _255  and  _257
REMARK  102  A    between atoms: _257  and  _258
REMARK  103  A    between atoms: _257  and  _260
REMARK  104  A    between atoms: _260  and  _261
REMARK  105  A    between atoms: _267  and  _269
REMARK  106  A    between atoms: _269  and  _270
REMARK  107  A    between atoms: _269  and  _272
REMARK  108  A    between atoms: _272  and  _273
REMARK  109  A    between atoms: _273  and  _274
REMARK  110  A    between atoms: _276  and  _278
REMARK  111  A    between atoms: _278  and  _279
REMARK  112  A    between atoms: _278  and  _281
REMARK  113  A    between atoms: _281  and  _282
REMARK  114  A    between atoms: _285  and  _287
REMARK  115  A    between atoms: _287  and  _288
REMARK  116  A    between atoms: _291  and  _293
REMARK  117  A    between atoms: _293  and  _294
REMARK  118  A    between atoms: _293  and  _296
REMARK  119  A    between atoms: _296  and  _297
REMARK  120  A    between atoms: _297  and  _298
REMARK  121  A    between atoms: _301  and  _303
REMARK  122  A    between atoms: _303  and  _304
REMARK  123  A    between atoms: _303  and  _306
REMARK  124  A    between atoms: _306  and  _307
REMARK  125  A    between atoms: _313  and  _315
REMARK  126  A    between atoms: _315  and  _316
REMARK  127  A    between atoms: _315  and  _318
REMARK  128  A    between atoms: _318  and  _319
REMARK  129  A    between atoms: _322  and  _324
REMARK  130  A    between atoms: _324  and  _325
REMARK  131  A    between atoms: _327  and  _329
REMARK  132  A    between atoms: _329  and  _330
REMARK  133  A    between atoms: _329  and  _332
REMARK  134  A    between atoms: _335  and  _337
REMARK  135  A    between atoms: _337  and  _338
REMARK  136  A    between atoms: _337  and  _340
REMARK  137  A    between atoms: _343  and  _345
REMARK  138  A    between atoms: _345  and  _346
REMARK  139  A    between atoms: _345  and  _348
REMARK  140  A    between atoms: _348  and  _349
REMARK  141  A    between atoms: _349  and  _350
REMARK  142  A    between atoms: _352  and  _354
REMARK  143  A    between atoms: _354  and  _355
REMARK  144  A    between atoms: _357  and  _359
REMARK  145  A    between atoms: _359  and  _360
REMARK  146  A    between atoms: _359  and  _362
REMARK  147  A    between atoms: _362  and  _363
REMARK  148  A    between atoms: _369  and  _371
REMARK  149  A    between atoms: _371  and  _372
REMARK  150  A    between atoms: _371  and  _374
REMARK  151  A    between atoms: _374  and  _375
REMARK  152  A    between atoms: _375  and  _376
REMARK  153  A    between atoms: _379  and  _381
REMARK  154  A    between atoms: _381  and  _382
REMARK  155  A    between atoms: _381  and  _384
REMARK  156  A    between atoms: _384  and  _385
REMARK  157  A    between atoms: _385  and  _386
REMARK  158  A    between atoms: _391  and  _393
REMARK  159  A    between atoms: _393  and  _394
REMARK  160  A    between atoms: _397  and  _399
REMARK  161  A    between atoms: _399  and  _400
REMARK  162  A    between atoms: _399  and  _402
REMARK  163  A    between atoms: _402  and  _403
REMARK  164  A    between atoms: _406  and  _408
REMARK  165  A    between atoms: _408  and  _409
REMARK  166  A    between atoms: _411  and  _413
REMARK  167  A    between atoms: _413  and  _414
REMARK  168  A    between atoms: _413  and  _416
REMARK  169  A    between atoms: _419  and  _421
REMARK  170  A    between atoms: _421  and  _422
REMARK  171  A    between atoms: _421  and  _424
REMARK  172  A    between atoms: _424  and  _425
REMARK  173  A    between atoms: _425  and  _426
REMARK  174  A    between atoms: _431  and  _433
REMARK  175  A    between atoms: _433  and  _434
REMARK  176  A    between atoms: _433  and  _436
REMARK  177  A    between atoms: _436  and  _437
REMARK  178  A    between atoms: _440  and  _442
REMARK  179  A    between atoms: _442  and  _443
REMARK  180  A    between atoms: _442  and  _445
REMARK  181  A    between atoms: _448  and  _450
REMARK  182  A    between atoms: _450  and  _451
REMARK  183  A    between atoms: _450  and  _453
REMARK  184  A    between atoms: _453  and  _454
REMARK  185  A    between atoms: _457  and  _459
REMARK  186  A    between atoms: _459  and  _460
REMARK  187  A    between atoms: _459  and  _462
REMARK  188  A    between atoms: _462  and  _463
REMARK  189  A    between atoms: _466  and  _468
REMARK  190  A    between atoms: _468  and  _469
REMARK  191  A    between atoms: _471  and  _473
REMARK  192  A    between atoms: _473  and  _474
REMARK  193  A    between atoms: _477  and  _479
REMARK  194  A    between atoms: _479  and  _480
REMARK  195  A    between atoms: _479  and  _482
REMARK  196  A    between atoms: _482  and  _483
REMARK  197  A    between atoms: _485  and  _487
REMARK  198  A    between atoms: _487  and  _488
REMARK  199  A    between atoms: _487  and  _490
REMARK  200  A    between atoms: _490  and  _491
REMARK  201  A    between atoms: _496  and  _497
REMARK  202  A    between atoms: _499  and  _501
REMARK  203  A    between atoms: _501  and  _502
REMARK  204  A    between atoms: _501  and  _504
REMARK  205  A    between atoms: _504  and  _505
REMARK  206  A    between atoms: _508  and  _510
REMARK  207  A    between atoms: _510  and  _511
REMARK  208  A    between atoms: _510  and  _513
REMARK  209  A    between atoms: _513  and  _514
REMARK  210  A    between atoms: _516  and  _518
REMARK  211  A    between atoms: _518  and  _519
REMARK  212  A    between atoms: _521  and  _523
REMARK  213  A    between atoms: _523  and  _524
REMARK  214  A    between atoms: _523  and  _526
REMARK  215  A    between atoms: _526  and  _527
REMARK  216  A    between atoms: _533  and  _535
REMARK  217  A    between atoms: _535  and  _536
REMARK  218  A    between atoms: _535  and  _538
REMARK  219  A    between atoms: _538  and  _539
REMARK  220  A    between atoms: _542  and  _544
REMARK  221  A    between atoms: _544  and  _545
REMARK  222  A    between atoms: _548  and  _550
REMARK  223  A    between atoms: _550  and  _551
REMARK  224  A    between atoms: _550  and  _553
REMARK  225  A    between atoms: _553  and  _554
REMARK  226  A    between atoms: _557  and  _559
REMARK  227  A    between atoms: _559  and  _560
REMARK  228  A    between atoms: _559  and  _562
REMARK  229  A    between atoms: _562  and  _563
REMARK  230  A    between atoms: _568  and  _570
REMARK  231  A    between atoms: _570  and  _571
REMARK  232  A    between atoms: _574  and  _576
REMARK  233  A    between atoms: _576  and  _577
REMARK  234  A    between atoms: _576  and  _579
REMARK  235  A    between atoms: _579  and  _580
REMARK  236  A    between atoms: _580  and  _581
REMARK  237  A    between atoms: _583  and  _585
REMARK  238  A    between atoms: _585  and  _586
REMARK  239  A    between atoms: _585  and  _588
REMARK  240  A    between atoms: _588  and  _589
REMARK  241  A    between atoms: _592  and  _594
REMARK  242  A    between atoms: _594  and  _595
REMARK  243  A    between atoms: _594  and  _597
REMARK  244  A    between atoms: _597  and  _598
REMARK  245  A    between atoms: _602  and  _603
REMARK  246  A    between atoms: _608  and  _610
REMARK  247  A    between atoms: _610  and  _611
REMARK  248  A    between atoms: _610  and  _613
REMARK  249  A    between atoms: _613  and  _614
REMARK  250  A    between atoms: _617  and  _619
REMARK  251  A    between atoms: _619  and  _620
REMARK  252  A    between atoms: _622  and  _624
REMARK  253  A    between atoms: _624  and  _625
REMARK  254  A    between atoms: _624  and  _627
REMARK  255  A    between atoms: _627  and  _628
REMARK  256  A    between atoms: _631  and  _633
REMARK  257  A    between atoms: _633  and  _634
REMARK  258  A    between atoms: _633  and  _636
REMARK  259  A    between atoms: _636  and  _637
REMARK  260  A    between atoms: _647  and  _649
REMARK  261  A    between atoms: _649  and  _650
REMARK  262  A    between atoms: _653  and  _655
REMARK  263  A    between atoms: _655  and  _656
REMARK  264  A    between atoms: _655  and  _658
REMARK  265  A    between atoms: _658  and  _659
REMARK  266  A    between atoms: _662  and  _664
REMARK  267  A    between atoms: _664  and  _665
REMARK  268  A    between atoms: _667  and  _669
REMARK  269  A    between atoms: _669  and  _670
REMARK  270  A    between atoms: _673  and  _675
REMARK  271  A    between atoms: _675  and  _676
REMARK  272  A    between atoms: _675  and  _678
REMARK  273  A    between atoms: _678  and  _679
REMARK  274  A    between atoms: _682  and  _684
REMARK  275  A    between atoms: _684  and  _685
REMARK  276  A    between atoms: _684  and  _687
REMARK  277  A    between atoms: _687  and  _688
REMARK                            x       y       z     vdW  Elec       q    Type
REMARK                         _______ _______ _______ _____ _____    ______ ____
ROOT
ATOM      1  C   GLY A   1      -3.363 -35.166 -47.897  0.00  0.00    +0.240 C 
ATOM      2  N   VAL A   2      -2.287 -34.929 -47.143  0.00  0.00    -0.298 N 
ATOM      3  H   VAL A   2      -1.350 -35.190 -47.510  0.00  0.00    +0.150 HD
ATOM      4  O   GLY A   1      -4.531 -34.950 -47.508  0.00  0.00    -0.274 OA
ENDROOT
BRANCH   1   5
ATOM      5  CA  GLY A   1      -3.097 -35.750 -49.280  0.00  0.00    +0.169 C 
BRANCH   5   6
ATOM      6  N   GLY A   1      -1.795 -35.448 -49.885  0.00  0.00    -0.236 NA
ATOM      7  H   GLY A   1      -1.574 -34.479 -50.192  0.00  0.00    +0.142 HD
ENDBRANCH   5   6
ENDBRANCH   1   5
BRANCH   2   8
ATOM      8  CA  VAL A   2      -2.380 -34.317 -45.824  0.00  0.00    +0.137 C 
BRANCH   8   9
ATOM      9  CB  VAL A   2      -2.600 -35.364 -44.661  0.00  0.00    +0.026 C 
ATOM     10  CG2 VAL A   2      -2.887 -34.697 -43.305  0.00  0.00    +0.002 C 
ATOM     11  CG1 VAL A   2      -1.430 -36.206 -44.482  0.00  0.00    +0.002 C 
ENDBRANCH   8   9
BRANCH   8  12
ATOM     12  C   VAL A   2      -1.205 -33.366 -45.604  0.00  0.00    +0.227 C 
ATOM     13  O   VAL A   2      -0.063 -33.677 -45.959  0.00  0.00    -0.286 OA
ENDBRANCH   8  12
ENDBRANCH   2   8
TORSDOF 5
REMARK  Name = ../refined-set-2016/3own/3own_pocket.pdb
REMARK  277 active torsions:
REMARK  status: ('A' for Active; 'I' for Inactive)
REMARK    1  A    between atoms: _1  and  _3
REMARK    2  A    between atoms: _3  and  _4
REMARK    3  A    between atoms: _3  and  _6
REMARK    4  A    between atoms: _6  and  _7
REMARK    5  A    between atoms: _12  and  _13
REMARK    6  A    between atoms: _15  and  _17
REMARK    7  A    between atoms: _17  and  _18
REMARK    8  A    between atoms: _17  and  _20
REMARK    9  A    between atoms: _20  and  _21
REMARK   10  A    between atoms: _24  and  _26
REMARK   11  A    between atoms: _26  and  _27
REMARK   12  A    between atoms: _26  and  _29
REMARK   13  A    between atoms: _29  and  _30
REMARK   14  A    between atoms: _33  and  _35
REMARK   15  A    between atoms: _35  and  _36
REMARK   16  A    between atoms: _35  and  _38
REMARK   17  A    between atoms: _38  and  _39
REMARK   18  A    between atoms: _39  and  _40
REMARK   19  A    between atoms: _45  and  _47
REMARK   20  A    between atoms: _47  and  _48
REMARK   21  A    between atoms: _47  and  _50
REMARK   22  A    between atoms: _50  and  _51
REMARK   23  A    between atoms: _56  and  _57
REMARK   24  A    between atoms: _59  and  _61
REMARK   25  A    between atoms: _61  and  _62
REMARK   26  A    between atoms: _61  and  _64
REMARK   27  A    between atoms: _67  and  _69
REMARK   28  A    between atoms: _69  and  _70
REMARK   29  A    between atoms: _69  and  _72
REMARK   30  A    between atoms: _72  and  _73
REMARK   31  A    between atoms: _79  and  _81
REMARK   32  A    between atoms: _81  and  _82
REMARK   33  A    between atoms: _81  and  _84
REMARK   34  A    between atoms: _84  and  _85
REMARK   35  A    between atoms: _88  and  _90
REMARK   36  A    between atoms: _90  and  _91
REMARK   37  A    between atoms: _90  and  _93
REMARK   38  A    between atoms: _93  and  _94
REMARK   39  A    between atoms: _97  and  _99
REMARK   40  A    between atoms: _99  and  _100
REMARK   41  A    between atoms: _102  and  _104
REMARK   42  A    between atoms: _104  and  _105
REMARK   43  A    between atoms: _104  and  _107
REMARK   44  A    between atoms: _107  and  _108
REMARK   45  A    between atoms: _110  and  _112
REMARK   46  A    between atoms: _112  and  _113
REMARK   47  A    between atoms: _112  and  _115
REMARK   48  A    between atoms: _115  and  _116
REMARK   49  A    between atoms: _118  and  _120
REMARK   50  A    between atoms: _120  and  _121
REMARK   51  A    between atoms: _120  and  _123
REMARK   52  A    between atoms: _123  and  _124
REMARK   53  A    between atoms: _129  and  _131
REMARK   54  A    between atoms: _131  and  _132
REMARK   55  A    between atoms: _131  and  _134
REMARK   56  A    between atoms: _134  and  _135
REMARK   57  A    between atoms: _145  and  _147
REMARK   58  A    between atoms: _147  and  _148
REMARK   59  A    between atoms: _147  and  _150
REMARK   60  A    between atoms: _150  and  _151
REMARK   61  A    between atoms: _154  and  _156
REMARK   62  A    between atoms: _156  and  _157
REMARK   63  A    between atoms: _156  and  _159
REMARK   64  A    between atoms: _159  and  _160
REMARK   65  A    between atoms: _163  and  _165
REMARK   66  A    between atoms: _165  and  _166
REMARK   67  A    between atoms: _165  and  _168
REMARK   68  A    between atoms: _168  and  _169
REMARK   69  A    between atoms: _169  and  _170
REMARK   70  A    between atoms: _170  and  _171
REMARK   71  A    between atoms: _180  and  _182
REMARK   72  A    between atoms: _182  and  _183
REMARK   73  A    between atoms: _182  and  _185
REMARK   74  A    between atoms: _185  and  _186
REMARK   75  A    between atoms: _191  and  _192
REMARK   76  A    between atoms: _194  and  _196
REMARK   77  A    between atoms: _196  and  _197
REMARK   78  A    between atoms: _196  and  _199
REMARK   79  A    between atoms: _199  and  _200
REMARK   80  A    between atoms: _202  and  _204
REMARK   81  A    between atoms: _204  and  _205
REMARK   82  A    between atoms: _204  and  _207
REMARK   83  A    between atoms: _207  and  _208
REMARK   84  A    between atoms: _211  and  _213
REMARK   85  A    between atoms: _213  and  _214
REMARK   86  A    between atoms: _216  and  _218
REMARK   87  A    between atoms: _218  and  _219
REMARK   88  A    between atoms: _218  and  _221
REMARK   89  A    between atoms: _224  and  _226
REMARK   90  A    between atoms: _226  and  _227
REMARK   91  A    between atoms: _226  and  _229
REMARK   92  A    between atoms: _229  and  _230
REMARK   93  A    between atoms: _230  and  _231
REMARK   94  A    between atoms: _233  and  _235
REMARK   95  A    between atoms: _235  and  _236
REMARK   96  A    between atoms: _239  and  _241
REMARK   97  A    between atoms: _241  and  _242
REMARK   98  A    between atoms: _241  and  _244
REMARK   99  A    between atoms: _244  and  _245
REMARK  100  A    between atoms: _249  and  _250
REMARK  101  A    between atoms: _255  and  _257
REMARK  102  A    between atoms: _257  and  _258
REMARK  103  A    between atoms: _257  and  _260
REMARK  104  A    between atoms: _260  and  _261
REMARK  105  A    between atoms: _267  and  _269
REMARK  106  A    between atoms: _269  and  _270
REMARK  107  A    between atoms: _269  and  _272
REMARK  108  A    between atoms: _272  and  _273
REMARK  109  A    between atoms: _273  and  _274
REMARK  110  A    between atoms: _276  and  _278
REMARK  111  A    between atoms: _278  and  _279
REMARK  112  A    between atoms: _278  and  _281
REMARK  113  A    between atoms: _281  and  _282
REMARK  114  A    between atoms: _285  and  _287
REMARK  115  A    between atoms: _287  and  _288
REMARK  116  A    between atoms: _291  and  _293
REMARK  117  A    between atoms: _293  and  _294
REMARK  118  A    between atoms: _293  and  _296
REMARK  119  A    between atoms: _296  and  _297
REMARK  120  A    between atoms: _297  and  _298
REMARK  121  A    between atoms: _301  and  _303
REMARK  122  A    between atoms: _303  and  _304
REMARK  123  A    between atoms: _303  and  _306
REMARK  124  A    between atoms: _306  and  _307
REMARK  125  A    between atoms: _313  and  _315
REMARK  126  A    between atoms: _315  and  _316
REMARK  127  A    between atoms: _315  and  _318
REMARK  128  A    between atoms: _318  and  _319
REMARK  129  A    between atoms: _322  and  _324
REMARK  130  A    between atoms: _324  and  _325
REMARK  131  A    between atoms: _327  and  _329
REMARK  132  A    between atoms: _329  and  _330
REMARK  133  A    between atoms: _329  and  _332
REMARK  134  A    between atoms: _335  and  _337
REMARK  135  A    between atoms: _337  and  _338
REMARK  136  A    between atoms: _337  and  _340
REMARK  137  A    between atoms: _343  and  _345
REMARK  138  A    between atoms: _345  and  _346
REMARK  139  A    between atoms: _345  and  _348
REMARK  140  A    between atoms: _348  and  _349
REMARK  141  A    between atoms: _349  and  _350
REMARK  142  A    between atoms: _352  and  _354
REMARK  143  A    between atoms: _354  and  _355
REMARK  144  A    between atoms: _357  and  _359
REMARK  145  A    between atoms: _359  and  _360
REMARK  146  A    between atoms: _359  and  _362
REMARK  147  A    between atoms: _362  and  _363
REMARK  148  A    between atoms: _369  and  _371
REMARK  149  A    between atoms: _371  and  _372
REMARK  150  A    between atoms: _371  and  _374
REMARK  151  A    between atoms: _374  and  _375
REMARK  152  A    between atoms: _375  and  _376
REMARK  153  A    between atoms: _379  and  _381
REMARK  154  A    between atoms: _381  and  _382
REMARK  155  A    between atoms: _381  and  _384
REMARK  156  A    between atoms: _384  and  _385
REMARK  157  A    between atoms: _385  and  _386
REMARK  158  A    between atoms: _391  and  _393
REMARK  159  A    between atoms: _393  and  _394
REMARK  160  A    between atoms: _397  and  _399
REMARK  161  A    between atoms: _399  and  _400
REMARK  162  A    between atoms: _399  and  _402
REMARK  163  A    between atoms: _402  and  _403
REMARK  164  A    between atoms: _406  and  _408
REMARK  165  A    between atoms: _408  and  _409
REMARK  166  A    between atoms: _411  and  _413
REMARK  167  A    between atoms: _413  and  _414
REMARK  168  A    between atoms: _413  and  _416
REMARK  169  A    between atoms: _419  and  _421
REMARK  170  A    between atoms: _421  and  _422
REMARK  171  A    between atoms: _421  and  _424
REMARK  172  A    between atoms: _424  and  _425
REMARK  173  A    between atoms: _425  and  _426
REMARK  174  A    between atoms: _431  and  _433
REMARK  175  A    between atoms: _433  and  _434
REMARK  176  A    between atoms: _433  and  _436
REMARK  177  A    between atoms: _436  and  _437
REMARK  178  A    between atoms: _440  and  _442
REMARK  179  A    between atoms: _442  and  _443
REMARK  180  A    between atoms: _442  and  _445
REMARK  181  A    between atoms: _448  and  _450
REMARK  182  A    between atoms: _450  and  _451
REMARK  183  A    between atoms: _450  and  _453
REMARK  184  A    between atoms: _453  and  _454
REMARK  185  A    between atoms: _457  and  _459
REMARK  186  A    between atoms: _459  and  _460
REMARK  187  A    between atoms: _459  and  _462
REMARK  188  A    between atoms: _462  and  _463
REMARK  189  A    between atoms: _466  and  _468
REMARK  190  A    between atoms: _468  and  _469
REMARK  191  A    between atoms: _471  and  _473
REMARK  192  A    between atoms: _473  and  _474
REMARK  193  A    between atoms: _477  and  _479
REMARK  194  A    between atoms: _479  and  _480
REMARK  195  A    between atoms: _479  and  _482
REMARK  196  A    between atoms: _482  and  _483
REMARK  197  A    between atoms: _485  and  _487
REMARK  198  A    between atoms: _487  and  _488
REMARK  199  A    between atoms: _487  and  _490
REMARK  200  A    between atoms: _490  and  _491
REMARK  201  A    between atoms: _496  and  _497
REMARK  202  A    between atoms: _499  and  _501
REMARK  203  A    between atoms: _501  and  _502
REMARK  204  A    between atoms: _501  and  _504
REMARK  205  A    between atoms: _504  and  _505
REMARK  206  A    between atoms: _508  and  _510
REMARK  207  A    between atoms: _510  and  _511
REMARK  208  A    between atoms: _510  and  _513
REMARK  209  A    between atoms: _513  and  _514
REMARK  210  A    between atoms: _516  and  _518
REMARK  211  A    between atoms: _518  and  _519
REMARK  212  A    between atoms: _521  and  _523
REMARK  213  A    between atoms: _523  and  _524
REMARK  214  A    between atoms: _523  and  _526
REMARK  215  A    between atoms: _526  and  _527
REMARK  216  A    between atoms: _533  and  _535
REMARK  217  A    between atoms: _535  and  _536
REMARK  218  A    between atoms: _535  and  _538
REMARK  219  A    between atoms: _538  and  _539
REMARK  220  A    between atoms: _542  and  _544
REMARK  221  A    between atoms: _544  and  _545
REMARK  222  A    between atoms: _548  and  _550
REMARK  223  A    between atoms: _550  and  _551
REMARK  224  A    between atoms: _550  and  _553
REMARK  225  A    between atoms: _553  and  _554
REMARK  226  A    between atoms: _557  and  _559
REMARK  227  A    between atoms: _559  and  _560
REMARK  228  A    between atoms: _559  and  _562
REMARK  229  A    between atoms: _562  and  _563
REMARK  230  A    between atoms: _568  and  _570
REMARK  231  A    between atoms: _570  and  _571
REMARK  232  A    between atoms: _574  and  _576
REMARK  233  A    between atoms: _576  and  _577
REMARK  234  A    between atoms: _576  and  _579
REMARK  235  A    between atoms: _579  and  _580
REMARK  236  A    between atoms: _580  and  _581
REMARK  237  A    between atoms: _583  and  _585
REMARK  238  A    between atoms: _585  and  _586
REMARK  239  A    between atoms: _585  and  _588
REMARK  240  A    between atoms: _588  and  _589
REMARK  241  A    between atoms: _592  and  _594
REMARK  242  A    between atoms: _594  and  _595
REMARK  243  A    between atoms: _594  and  _597
REMARK  244  A    between atoms: _597  and  _598
REMARK  245  A    between atoms: _602  and  _603
REMARK  246  A    between atoms: _608  and  _610
REMARK  247  A    between atoms: _610  and  _611
REMARK  248  A    between atoms: _610  and  _613
REMARK  249  A    between atoms: _613  and  _614
REMARK  250  A    between atoms: _617  and  _619
REMARK  251  A    between atoms: _619  and  _620
REMARK  252  A    between atoms: _622  and  _624
REMARK  253  A    between atoms: _624  and  _625
REMARK  254  A    between atoms: _624  and  _627
REMARK  255  A    between atoms: _627  and  _628
REMARK  256  A    between atoms: _631  and  _633
REMARK  257  A    between atoms: _633  and  _634
REMARK  258  A    between atoms: _633  and  _636
REMARK  259  A    between atoms: _636  and  _637
REMARK  260  A    between atoms: _647  and  _649
REMARK  261  A    between atoms: _649  and  _650
REMARK  262  A    between atoms: _653  and  _655
REMARK  263  A    between atoms: _655  and  _656
REMARK  264  A    between atoms: _655  and  _658
REMARK  265  A    between atoms: _658  and  _659
REMARK  266  A    between atoms: _662  and  _664
REMARK  267  A    between atoms: _664  and  _665
REMARK  268  A    between atoms: _667  and  _669
REMARK  269  A    between atoms: _669  and  _670
REMARK  270  A    between atoms: _673  and  _675
REMARK  271  A    between atoms: _675  and  _676
REMARK  272  A    between atoms: _675  and  _678
REMARK  273  A    between atoms: _678  and  _679
REMARK  274  A    between atoms: _682  and  _684
REMARK  275  A    between atoms: _684  and  _685
REMARK  276  A    between atoms: _684  and  _687
REMARK  277  A    between atoms: _687  and  _688
REMARK                            x       y       z     vdW  Elec       q    Type
REMARK                         _______ _______ _______ _____ _____    ______ ____
ROOT
ATOM      1  CB  GLN A   1       0.761 -34.685 -41.918  0.00  0.00    +0.035 C 
ENDROOT
BRANCH   1   2
ATOM      2  CA  GLN A   1       1.570 -33.437 -42.293  0.00  0.00    +0.134 C 
BRANCH   2   3
ATOM      3  N   GLN A   1       0.996 -32.750 -43.467  0.00  0.00    -0.239 NA
ATOM      4  H   GLN A   1       1.226 -33.097 -44.420  0.00  0.00    +0.142 HD
ENDBRANCH   2   3
BRANCH   2   5
ATOM      5  C   GLN A   1       2.984 -33.833 -42.645  0.00  0.00    +0.224 C 
ATOM      6  O   GLN A   1       3.255 -34.309 -43.745  0.00  0.00    -0.287 OA
ENDBRANCH   2   5
ENDBRANCH   1   2
BRANCH   1   7
ATOM      7  CG  GLN A   1       1.105 -35.335 -40.550  0.00  0.00    +0.087 C 
BRANCH   7   8
ATOM      8  CD  GLN A   1       0.234 -36.563 -40.305  0.00  0.00    +0.219 C 
ATOM      9  NE2 GLN A   1      -0.401 -36.622 -39.152  0.00  0.00    -0.329 N 
ATOM     10 HE21 GLN A   1      -0.261 -35.874 -38.443  0.00  0.00    +0.145 HD
ATOM     11 HE22 GLN A   1      -1.042 -37.416 -38.951  0.00  0.00    +0.145 HD
ATOM     12  OE1 GLN A   1       0.102 -37.425 -41.179  0.00  0.00    -0.275 OA
ENDBRANCH   7   8
ENDBRANCH   1   7
TORSDOF 5
REMARK  Name = ../refined-set-2016/3own/3own_pocket.pdb
REMARK  277 active torsions:
REMARK  status: ('A' for Active; 'I' for Inactive)
REMARK    1  A    between atoms: _1  and  _3
REMARK    2  A    between atoms: _3  and  _4
REMARK    3  A    between atoms: _3  and  _6
REMARK    4  A    between atoms: _6  and  _7
REMARK    5  A    between atoms: _12  and  _13
REMARK    6  A    between atoms: _15  and  _17
REMARK    7  A    between atoms: _17  and  _18
REMARK    8  A    between atoms: _17  and  _20
REMARK    9  A    between atoms: _20  and  _21
REMARK   10  A    between atoms: _24  and  _26
REMARK   11  A    between atoms: _26  and  _27
REMARK   12  A    between atoms: _26  and  _29
REMARK   13  A    between atoms: _29  and  _30
REMARK   14  A    between atoms: _33  and  _35
REMARK   15  A    between atoms: _35  and  _36
REMARK   16  A    between atoms: _35  and  _38
REMARK   17  A    between atoms: _38  and  _39
REMARK   18  A    between atoms: _39  and  _40
REMARK   19  A    between atoms: _45  and  _47
REMARK   20  A    between atoms: _47  and  _48
REMARK   21  A    between atoms: _47  and  _50
REMARK   22  A    between atoms: _50  and  _51
REMARK   23  A    between atoms: _56  and  _57
REMARK   24  A    between atoms: _59  and  _61
REMARK   25  A    between atoms: _61  and  _62
REMARK   26  A    between atoms: _61  and  _64
REMARK   27  A    between atoms: _67  and  _69
REMARK   28  A    between atoms: _69  and  _70
REMARK   29  A    between atoms: _69  and  _72
REMARK   30  A    between atoms: _72  and  _73
REMARK   31  A    between atoms: _79  and  _81
REMARK   32  A    between atoms: _81  and  _82
REMARK   33  A    between atoms: _81  and  _84
REMARK   34  A    between atoms: _84  and  _85
REMARK   35  A    between atoms: _88  and  _90
REMARK   36  A    between atoms: _90  and  _91
REMARK   37  A    between atoms: _90  and  _93
REMARK   38  A    between atoms: _93  and  _94
REMARK   39  A    between atoms: _97  and  _99
REMARK   40  A    between atoms: _99  and  _100
REMARK   41  A    between atoms: _102  and  _104
REMARK   42  A    between atoms: _104  and  _105
REMARK   43  A    between atoms: _104  and  _107
REMARK   44  A    between atoms: _107  and  _108
REMARK   45  A    between atoms: _110  and  _112
REMARK   46  A    between atoms: _112  and  _113
REMARK   47  A    between atoms: _112  and  _115
REMARK   48  A    between atoms: _115  and  _116
REMARK   49  A    between atoms: _118  and  _120
REMARK   50  A    between atoms: _120  and  _121
REMARK   51  A    between atoms: _120  and  _123
REMARK   52  A    between atoms: _123  and  _124
REMARK   53  A    between atoms: _129  and  _131
REMARK   54  A    between atoms: _131  and  _132
REMARK   55  A    between atoms: _131  and  _134
REMARK   56  A    between atoms: _134  and  _135
REMARK   57  A    between atoms: _145  and  _147
REMARK   58  A    between atoms: _147  and  _148
REMARK   59  A    between atoms: _147  and  _150
REMARK   60  A    between atoms: _150  and  _151
REMARK   61  A    between atoms: _154  and  _156
REMARK   62  A    between atoms: _156  and  _157
REMARK   63  A    between atoms: _156  and  _159
REMARK   64  A    between atoms: _159  and  _160
REMARK   65  A    between atoms: _163  and  _165
REMARK   66  A    between atoms: _165  and  _166
REMARK   67  A    between atoms: _165  and  _168
REMARK   68  A    between atoms: _168  and  _169
REMARK   69  A    between atoms: _169  and  _170
REMARK   70  A    between atoms: _170  and  _171
REMARK   71  A    between atoms: _180  and  _182
REMARK   72  A    between atoms: _182  and  _183
REMARK   73  A    between atoms: _182  and  _185
REMARK   74  A    between atoms: _185  and  _186
REMARK   75  A    between atoms: _191  and  _192
REMARK   76  A    between atoms: _194  and  _196
REMARK   77  A    between atoms: _196  and  _197
REMARK   78  A    between atoms: _196  and  _199
REMARK   79  A    between atoms: _199  and  _200
REMARK   80  A    between atoms: _202  and  _204
REMARK   81  A    between atoms: _204  and  _205
REMARK   82  A    between atoms: _204  and  _207
REMARK   83  A    between atoms: _207  and  _208
REMARK   84  A    between atoms: _211  and  _213
REMARK   85  A    between atoms: _213  and  _214
REMARK   86  A    between atoms: _216  and  _218
REMARK   87  A    between atoms: _218  and  _219
REMARK   88  A    between atoms: _218  and  _221
REMARK   89  A    between atoms: _224  and  _226
REMARK   90  A    between atoms: _226  and  _227
REMARK   91  A    between atoms: _226  and  _229
REMARK   92  A    between atoms: _229  and  _230
REMARK   93  A    between atoms: _230  and  _231
REMARK   94  A    between atoms: _233  and  _235
REMARK   95  A    between atoms: _235  and  _236
REMARK   96  A    between atoms: _239  and  _241
REMARK   97  A    between atoms: _241  and  _242
REMARK   98  A    between atoms: _241  and  _244
REMARK   99  A    between atoms: _244  and  _245
REMARK  100  A    between atoms: _249  and  _250
REMARK  101  A    between atoms: _255  and  _257
REMARK  102  A    between atoms: _257  and  _258
REMARK  103  A    between atoms: _257  and  _260
REMARK  104  A    between atoms: _260  and  _261
REMARK  105  A    between atoms: _267  and  _269
REMARK  106  A    between atoms: _269  and  _270
REMARK  107  A    between atoms: _269  and  _272
REMARK  108  A    between atoms: _272  and  _273
REMARK  109  A    between atoms: _273  and  _274
REMARK  110  A    between atoms: _276  and  _278
REMARK  111  A    between atoms: _278  and  _279
REMARK  112  A    between atoms: _278  and  _281
REMARK  113  A    between atoms: _281  and  _282
REMARK  114  A    between atoms: _285  and  _287
REMARK  115  A    between atoms: _287  and  _288
REMARK  116  A    between atoms: _291  and  _293
REMARK  117  A    between atoms: _293  and  _294
REMARK  118  A    between atoms: _293  and  _296
REMARK  119  A    between atoms: _296  and  _297
REMARK  120  A    between atoms: _297  and  _298
REMARK  121  A    between atoms: _301  and  _303
REMARK  122  A    between atoms: _303  and  _304
REMARK  123  A    between atoms: _303  and  _306
REMARK  124  A    between atoms: _306  and  _307
REMARK  125  A    between atoms: _313  and  _315
REMARK  126  A    between atoms: _315  and  _316
REMARK  127  A    between atoms: _315  and  _318
REMARK  128  A    between atoms: _318  and  _319
REMARK  129  A    between atoms: _322  and  _324
REMARK  130  A    between atoms: _324  and  _325
REMARK  131  A    between atoms: _327  and  _329
REMARK  132  A    between atoms: _329  and  _330
REMARK  133  A    between atoms: _329  and  _332
REMARK  134  A    between atoms: _335  and  _337
REMARK  135  A    between atoms: _337  and  _338
REMARK  136  A    between atoms: _337  and  _340
REMARK  137  A    between atoms: _343  and  _345
REMARK  138  A    between atoms: _345  and  _346
REMARK  139  A    between atoms: _345  and  _348
REMARK  140  A    between atoms: _348  and  _349
REMARK  141  A    between atoms: _349  and  _350
REMARK  142  A    between atoms: _352  and  _354
REMARK  143  A    between atoms: _354  and  _355
REMARK  144  A    between atoms: _357  and  _359
REMARK  145  A    between atoms: _359  and  _360
REMARK  146  A    between atoms: _359  and  _362
REMARK  147  A    between atoms: _362  and  _363
REMARK  148  A    between atoms: _369  and  _371
REMARK  149  A    between atoms: _371  and  _372
REMARK  150  A    between atoms: _371  and  _374
REMARK  151  A    between atoms: _374  and  _375
REMARK  152  A    between atoms: _375  and  _376
REMARK  153  A    between atoms: _379  and  _381
REMARK  154  A    between atoms: _381  and  _382
REMARK  155  A    between atoms: _381  and  _384
REMARK  156  A    between atoms: _384  and  _385
REMARK  157  A    between atoms: _385  and  _386
REMARK  158  A    between atoms: _391  and  _393
REMARK  159  A    between atoms: _393  and  _394
REMARK  160  A    between atoms: _397  and  _399
REMARK  161  A    between atoms: _399  and  _400
REMARK  162  A    between atoms: _399  and  _402
REMARK  163  A    between atoms: _402  and  _403
REMARK  164  A    between atoms: _406  and  _408
REMARK  165  A    between atoms: _408  and  _409
REMARK  166  A    between atoms: _411  and  _413
REMARK  167  A    between atoms: _413  and  _414
REMARK  168  A    between atoms: _413  and  _416
REMARK  169  A    between atoms: _419  and  _421
REMARK  170  A    between atoms: _421  and  _422
REMARK  171  A    between atoms: _421  and  _424
REMARK  172  A    between atoms: _424  and  _425
REMARK  173  A    between atoms: _425  and  _426
REMARK  174  A    between atoms: _431  and  _433
REMARK  175  A    between atoms: _433  and  _434
REMARK  176  A    between atoms: _433  and  _436
REMARK  177  A    between atoms: _436  and  _437
REMARK  178  A    between atoms: _440  and  _442
REMARK  179  A    between atoms: _442  and  _443
REMARK  180  A    between atoms: _442  and  _445
REMARK  181  A    between atoms: _448  and  _450
REMARK  182  A    between atoms: _450  and  _451
REMARK  183  A    between atoms: _450  and  _453
REMARK  184  A    between atoms: _453  and  _454
REMARK  185  A    between atoms: _457  and  _459
REMARK  186  A    between atoms: _459  and  _460
REMARK  187  A    between atoms: _459  and  _462
REMARK  188  A    between atoms: _462  and  _463
REMARK  189  A    between atoms: _466  and  _468
REMARK  190  A    between atoms: _468  and  _469
REMARK  191  A    between atoms: _471  and  _473
REMARK  192  A    between atoms: _473  and  _474
REMARK  193  A    between atoms: _477  and  _479
REMARK  194  A    between atoms: _479  and  _480
REMARK  195  A    between atoms: _479  and  _482
REMARK  196  A    between atoms: _482  and  _483
REMARK  197  A    between atoms: _485  and  _487
REMARK  198  A    between atoms: _487  and  _488
REMARK  199  A    between atoms: _487  and  _490
REMARK  200  A    between atoms: _490  and  _491
REMARK  201  A    between atoms: _496  and  _497
REMARK  202  A    between atoms: _499  and  _501
REMARK  203  A    between atoms: _501  and  _502
REMARK  204  A    between atoms: _501  and  _504
REMARK  205  A    between atoms: _504  and  _505
REMARK  206  A    between atoms: _508  and  _510
REMARK  207  A    between atoms: _510  and  _511
REMARK  208  A    between atoms: _510  and  _513
REMARK  209  A    between atoms: _513  and  _514
REMARK  210  A    between atoms: _516  and  _518
REMARK  211  A    between atoms: _518  and  _519
REMARK  212  A    between atoms: _521  and  _523
REMARK  213  A    between atoms: _523  and  _524
REMARK  214  A    between atoms: _523  and  _526
REMARK  215  A    between atoms: _526  and  _527
REMARK  216  A    between atoms: _533  and  _535
REMARK  217  A    between atoms: _535  and  _536
REMARK  218  A    between atoms: _535  and  _538
REMARK  219  A    between atoms: _538  and  _539
REMARK  220  A    between atoms: _542  and  _544
REMARK  221  A    between atoms: _544  and  _545
REMARK  222  A    between atoms: _548  and  _550
REMARK  223  A    between atoms: _550  and  _551
REMARK  224  A    between atoms: _550  and  _553
REMARK  225  A    between atoms: _553  and  _554
REMARK  226  A    between atoms: _557  and  _559
REMARK  227  A    between atoms: _559  and  _560
REMARK  228  A    between atoms: _559  and  _562
REMARK  229  A    between atoms: _562  and  _563
REMARK  230  A    between atoms: _568  and  _570
REMARK  231  A    between atoms: _570  and  _571
REMARK  232  A    between atoms: _574  and  _576
REMARK  233  A    between atoms: _576  and  _577
REMARK  234  A    between atoms: _576  and  _579
REMARK  235  A    between atoms: _579  and  _580
REMARK  236  A    between atoms: _580  and  _581
REMARK  237  A    between atoms: _583  and  _585
REMARK  238  A    between atoms: _585  and  _586
REMARK  239  A    between atoms: _585  and  _588
REMARK  240  A    between atoms: _588  and  _589
REMARK  241  A    between atoms: _592  and  _594
REMARK  242  A    between atoms: _594  and  _595
REMARK  243  A    between atoms: _594  and  _597
REMARK  244  A    between atoms: _597  and  _598
REMARK  245  A    between atoms: _602  and  _603
REMARK  246  A    between atoms: _608  and  _610
REMARK  247  A    between atoms: _610  and  _611
REMARK  248  A    between atoms: _610  and  _613
REMARK  249  A    between atoms: _613  and  _614
REMARK  250  A    between atoms: _617  and  _619
REMARK  251  A    between atoms: _619  and  _620
REMARK  252  A    between atoms: _622  and  _624
REMARK  253  A    between atoms: _624  and  _625
REMARK  254  A    between atoms: _624  and  _627
REMARK  255  A    between atoms: _627  and  _628
REMARK  256  A    between atoms: _631  and  _633
REMARK  257  A    between atoms: _633  and  _634
REMARK  258  A    between atoms: _633  and  _636
REMARK  259  A    between atoms: _636  and  _637
REMARK  260  A    between atoms: _647  and  _649
REMARK  261  A    between atoms: _649  and  _650
REMARK  262  A    between atoms: _653  and  _655
REMARK  263  A    between atoms: _655  and  _656
REMARK  264  A    between atoms: _655  and  _658
REMARK  265  A    between atoms: _658  and  _659
REMARK  266  A    between atoms: _662  and  _664
REMARK  267  A    between atoms: _664  and  _665
REMARK  268  A    between atoms: _667  and  _669
REMARK  269  A    between atoms: _669  and  _670
REMARK  270  A    between atoms: _673  and  _675
REMARK  271  A    between atoms: _675  and  _676
REMARK  272  A    between atoms: _675  and  _678
REMARK  273  A    between atoms: _678  and  _679
REMARK  274  A    between atoms: _682  and  _684
REMARK  275  A    between atoms: _684  and  _685
REMARK  276  A    between atoms: _684  and  _687
REMARK  277  A    between atoms: _687  and  _688
REMARK                            x       y       z     vdW  Elec       q    Type
REMARK                         _______ _______ _______ _____ _____    ______ ____
ROOT
ATOM      1  C   ALA A   6      -5.973 -23.516 -34.401  0.00  0.00    +0.241 C 
ATOM      2  N   SER A   7      -6.452 -23.053 -33.264  0.00  0.00    -0.295 N 
ATOM      3  H   SER A   7      -7.291 -23.482 -32.825  0.00  0.00    +0.150 HD
ATOM      4  O   ALA A   6      -4.966 -23.021 -34.919  0.00  0.00    -0.273 OA
ENDROOT
BRANCH   1   5
ATOM      5  CA  ALA A   6      -6.715 -24.710 -35.033  0.00  0.00    +0.149 C 
ATOM      6  CB  ALA A   6      -5.862 -26.019 -34.851  0.00  0.00    +0.031 C 
BRANCH   5   8
ATOM      7  C   GLY A   5      -7.980 -24.454 -37.186  0.00  0.00    +0.243 C 
ATOM      8  N   ALA A   6      -6.871 -24.358 -36.456  0.00  0.00    -0.297 N 
ATOM      9  H   ALA A   6      -6.025 -23.996 -36.941  0.00  0.00    +0.150 HD
ATOM     10  O   GLY A   5      -9.051 -24.852 -36.732  0.00  0.00    -0.273 OA
BRANCH   7  11
ATOM     11  CA  GLY A   5      -7.868 -24.006 -38.650  0.00  0.00    +0.176 C 
BRANCH  11  14
ATOM     12  C   THR A   4      -5.670 -23.050 -39.263  0.00  0.00    +0.243 C 
ATOM     13  O   THR A   4      -5.974 -21.939 -38.844  0.00  0.00    -0.273 OA
ATOM     14  N   GLY A   5      -6.523 -24.088 -39.253  0.00  0.00    -0.295 N 
ATOM     15  H   GLY A   5      -6.224 -24.985 -39.687  0.00  0.00    +0.150 HD
BRANCH  12  16
ATOM     16  CA  THR A   4      -4.238 -23.259 -39.863  0.00  0.00    +0.176 C 
BRANCH  16  19
ATOM     17  C   ASP A   3      -3.652 -25.376 -38.863  0.00  0.00    +0.241 C 
ATOM     18  O   ASP A   3      -3.744 -24.877 -37.736  0.00  0.00    -0.273 OA
ATOM     19  N   THR A   4      -3.886 -24.684 -39.961  0.00  0.00    -0.295 N 
ATOM     20  H   THR A   4      -3.822 -25.144 -40.892  0.00  0.00    +0.150 HD
BRANCH  17  21
ATOM     21  CA  ASP A   3      -3.295 -26.861 -39.064  0.00  0.00    +0.160 C 
BRANCH  21  23
ATOM     22  C   VAL A   2      -1.173 -27.614 -40.128  0.00  0.00    +0.241 C 
ATOM     23  N   ASP A   3      -1.852 -27.102 -39.093  0.00  0.00    -0.297 N 
ATOM     24  H   ASP A   3      -1.309 -26.856 -38.241  0.00  0.00    +0.150 HD
ATOM     25  O   VAL A   2      -1.619 -27.735 -41.284  0.00  0.00    -0.273 OA
BRANCH  22  26
ATOM     26  CA  VAL A   2       0.252 -28.067 -39.795  0.00  0.00    +0.148 C 
BRANCH  26  29
ATOM     27  C   LEU A   1      -0.095 -30.248 -38.775  0.00  0.00    +0.238 C 
ATOM     28  O   LEU A   1      -0.384 -29.706 -37.697  0.00  0.00    -0.274 OA
ATOM     29  N   VAL A   2       0.216 -29.541 -39.852  0.00  0.00    -0.297 N 
ATOM     30  H   VAL A   2       0.436 -30.029 -40.744  0.00  0.00    +0.150 HD
BRANCH  27  31
ATOM     31  CA  LEU A   1      -0.071 -31.796 -38.918  0.00  0.00    +0.145 C 
BRANCH  31  32
ATOM     32  N   LEU A   1       0.877 -32.276 -37.928  0.00  0.00    -0.238 NA
ATOM     33  H   LEU A   1       0.546 -32.427 -36.954  0.00  0.00    +0.142 HD
ENDBRANCH  31  32
BRANCH  31  34
ATOM     34  CB  LEU A   1      -1.441 -32.407 -38.597  0.00  0.00    +0.026 C 
BRANCH  34  35
ATOM     35  CG  LEU A   1      -2.690 -32.276 -39.499  0.00  0.00    +0.002 C 
ATOM     36  CD2 LEU A   1      -2.975 -30.927 -40.227  0.00  0.00    +0.000 C 
ATOM     37  CD1 LEU A   1      -2.843 -33.513 -40.399  0.00  0.00    +0.000 C 
ENDBRANCH  34  35
ENDBRANCH  31  34
ENDBRANCH  27  31
ENDBRANCH  26  29
BRANCH  26  38
ATOM     38  CB  VAL A   2       1.387 -27.475 -40.702  0.00  0.00    +0.027 C 
ATOM     39  CG2 VAL A   2       2.714 -28.107 -40.323  0.00  0.00    +0.002 C 
ATOM     40  CG1 VAL A   2       1.450 -25.926 -40.583  0.00  0.00    +0.002 C 
ENDBRANCH  26  38
ENDBRANCH  22  26
ENDBRANCH  21  23
BRANCH  21  41
ATOM     41  CB  ASP A   3      -3.899 -27.687 -37.919  0.00  0.00    +0.143 C 
BRANCH  41  42
ATOM     42  CG  ASP A   3      -5.407 -27.810 -38.005  0.00  0.00    +0.367 C 
ATOM     43  OD2 ASP A   3      -5.966 -28.431 -37.113  0.00  0.00    -0.246 OA
ATOM     44  OD1 ASP A   3      -6.021 -27.305 -38.952  0.00  0.00    -0.246 OA
ENDBRANCH  41  42
ENDBRANCH  21  41
ENDBRANCH  17  21
ENDBRANCH  16  19
BRANCH  16  45
ATOM     45  CB  THR A   4      -4.138 -22.560 -41.232  0.00  0.00    +0.137 C 
ATOM     46  CG2 THR A   4      -2.749 -22.762 -41.905  0.00  0.00    +0.034 C 
BRANCH  45  47
ATOM     47  OG1 THR A   4      -5.109 -23.146 -42.087  0.00  0.00    -0.382 OA
ATOM     48  HG1 THR A   4      -6.010 -23.017 -41.698  0.00  0.00    +0.210 HD
ENDBRANCH  45  47
ENDBRANCH  16  45
ENDBRANCH  12  16
ENDBRANCH  11  14
ENDBRANCH   7  11
ENDBRANCH   5   8
ENDBRANCH   1   5
BRANCH   2  49
ATOM     49  CA  SER A   7      -5.769 -21.912 -32.630  0.00  0.00    +0.178 C 
BRANCH  49  50
ATOM     50  C   SER A   7      -4.475 -22.244 -31.935  0.00  0.00    +0.243 C 
ATOM     51  N   TYR A   8      -4.301 -23.505 -31.539  0.00  0.00    -0.297 N 
ATOM     52  H   TYR A   8      -4.924 -24.248 -31.915  0.00  0.00    +0.150 HD
ATOM     53  O   SER A   7      -3.688 -21.345 -31.687  0.00  0.00    -0.273 OA
BRANCH  51  54
ATOM     54  CA  TYR A   8      -3.255 -23.864 -30.589  0.00  0.00    +0.153 C 
BRANCH  54  55
ATOM     55  C   TYR A   8      -2.391 -24.975 -31.117  0.00  0.00    +0.241 C 
ATOM     56  N   ILE A   9      -1.500 -25.438 -30.253  0.00  0.00    -0.297 N 
ATOM     57  H   ILE A   9      -1.397 -24.954 -29.338  0.00  0.00    +0.150 HD
ATOM     58  O   TYR A   8      -2.517 -25.370 -32.265  0.00  0.00    -0.273 OA
BRANCH  56  59
ATOM     59  CA  ILE A   9      -0.662 -26.590 -30.526  0.00  0.00    +0.149 C 
BRANCH  59  60
ATOM     60  C   ILE A   9      -1.244 -27.756 -29.705  0.00  0.00    +0.241 C 
ATOM     61  O   ILE A   9      -1.635 -27.583 -28.564  0.00  0.00    -0.273 OA
ATOM     62  N   SER A  10      -1.326 -28.930 -30.304  0.00  0.00    -0.295 N 
ATOM     63  H   SER A  10      -1.041 -29.034 -31.299  0.00  0.00    +0.150 HD
BRANCH  62  64
ATOM     64  CA  SER A  10      -1.817 -30.072 -29.560  0.00  0.00    +0.178 C 
BRANCH  64  65
ATOM     65  C   SER A  10      -0.922 -31.275 -29.777  0.00  0.00    +0.243 C 
ATOM     66  N   GLY A  11      -0.914 -32.170 -28.799  0.00  0.00    -0.296 N 
ATOM     67  H   GLY A  11      -1.309 -31.920 -27.870  0.00  0.00    +0.150 HD
ATOM     68  O   SER A  10      -0.241 -31.394 -30.794  0.00  0.00    -0.273 OA
BRANCH  66  69
ATOM     69  CA  GLY A  11      -0.356 -33.505 -29.012  0.00  0.00    +0.163 C 
BRANCH  69  70
ATOM     70  C   GLY A  11      -1.364 -34.516 -28.490  0.00  0.00    +0.229 C 
ATOM     71  O   GLY A  11      -2.399 -34.133 -27.924  0.00  0.00    -0.286 OA
ENDBRANCH  69  70
ENDBRANCH  66  69
ENDBRANCH  64  65
BRANCH  64  72
ATOM     72  CB  SER A  10      -3.263 -30.406 -29.981  0.00  0.00    +0.166 C 
BRANCH  72  73
ATOM     73  OG  SER A  10      -3.267 -30.896 -31.301  0.00  0.00    -0.380 OA
ATOM     74  H   SER A  10      -2.711 -31.714 -31.350  0.00  0.00    +0.211 HD
ENDBRANCH  72  73
ENDBRANCH  64  72
ENDBRANCH  62  64
ENDBRANCH  59  60
BRANCH  59  75
ATOM     75  CB  ILE A   9       0.809 -26.309 -30.143  0.00  0.00    +0.027 C 
ATOM     76  CG2 ILE A   9       1.602 -27.643 -30.100  0.00  0.00    +0.002 C 
BRANCH  75  77
ATOM     77  CG1 ILE A   9       1.407 -25.249 -31.126  0.00  0.00    +0.002 C 
ATOM     78  CD1 ILE A   9       2.792 -24.809 -30.744  0.00  0.00    +0.000 C 
ENDBRANCH  75  77
ENDBRANCH  59  75
ENDBRANCH  56  59
ENDBRANCH  54  55
BRANCH  54  79
ATOM     79  CB  TYR A   8      -3.828 -24.267 -29.208  0.00  0.00    +0.055 C 
BRANCH  79  80
ATOM     80  CG  TYR A   8      -4.947 -23.377 -28.746  0.00  0.00    -0.020 A 
ATOM     81  CD2 TYR A   8      -4.701 -22.054 -28.407  0.00  0.00    -0.001 A 
ATOM     82  CE2 TYR A   8      -5.702 -21.215 -28.009  0.00  0.00    +0.036 A 
ATOM     83  CZ  TYR A   8      -7.010 -21.707 -27.949  0.00  0.00    +0.134 A 
ATOM     84  CE1 TYR A   8      -7.300 -23.034 -28.276  0.00  0.00    +0.036 A 
ATOM     85  CD1 TYR A   8      -6.261 -23.859 -28.665  0.00  0.00    -0.001 A 
BRANCH  83  86
ATOM     86  OH  TYR A   8      -8.010 -20.850 -27.574  0.00  0.00    -0.506 OA
ATOM     87  HH  TYR A   8      -7.624 -19.959 -27.381  0.00  0.00    +0.292 HD
ENDBRANCH  83  86
ENDBRANCH  79  80
ENDBRANCH  54  79
ENDBRANCH  51  54
ENDBRANCH  49  50
BRANCH  49  88
ATOM     88  CB  SER A   7      -6.645 -21.229 -31.581  0.00  0.00    +0.166 C 
BRANCH  88  89
ATOM     89  OG  SER A   7      -7.901 -20.883 -32.148  0.00  0.00    -0.380 OA
ATOM     90  H   SER A   7      -8.461 -20.441 -31.462  0.00  0.00    +0.211 HD
ENDBRANCH  88  89
ENDBRANCH  49  88
ENDBRANCH   2  49
TORSDOF 38
REMARK  Name = ../refined-set-2016/3own/3own_pocket.pdb
REMARK  277 active torsions:
REMARK  status: ('A' for Active; 'I' for Inactive)
REMARK    1  A    between atoms: _1  and  _3
REMARK    2  A    between atoms: _3  and  _4
REMARK    3  A    between atoms: _3  and  _6
REMARK    4  A    between atoms: _6  and  _7
REMARK    5  A    between atoms: _12  and  _13
REMARK    6  A    between atoms: _15  and  _17
REMARK    7  A    between atoms: _17  and  _18
REMARK    8  A    between atoms: _17  and  _20
REMARK    9  A    between atoms: _20  and  _21
REMARK   10  A    between atoms: _24  and  _26
REMARK   11  A    between atoms: _26  and  _27
REMARK   12  A    between atoms: _26  and  _29
REMARK   13  A    between atoms: _29  and  _30
REMARK   14  A    between atoms: _33  and  _35
REMARK   15  A    between atoms: _35  and  _36
REMARK   16  A    between atoms: _35  and  _38
REMARK   17  A    between atoms: _38  and  _39
REMARK   18  A    between atoms: _39  and  _40
REMARK   19  A    between atoms: _45  and  _47
REMARK   20  A    between atoms: _47  and  _48
REMARK   21  A    between atoms: _47  and  _50
REMARK   22  A    between atoms: _50  and  _51
REMARK   23  A    between atoms: _56  and  _57
REMARK   24  A    between atoms: _59  and  _61
REMARK   25  A    between atoms: _61  and  _62
REMARK   26  A    between atoms: _61  and  _64
REMARK   27  A    between atoms: _67  and  _69
REMARK   28  A    between atoms: _69  and  _70
REMARK   29  A    between atoms: _69  and  _72
REMARK   30  A    between atoms: _72  and  _73
REMARK   31  A    between atoms: _79  and  _81
REMARK   32  A    between atoms: _81  and  _82
REMARK   33  A    between atoms: _81  and  _84
REMARK   34  A    between atoms: _84  and  _85
REMARK   35  A    between atoms: _88  and  _90
REMARK   36  A    between atoms: _90  and  _91
REMARK   37  A    between atoms: _90  and  _93
REMARK   38  A    between atoms: _93  and  _94
REMARK   39  A    between atoms: _97  and  _99
REMARK   40  A    between atoms: _99  and  _100
REMARK   41  A    between atoms: _102  and  _104
REMARK   42  A    between atoms: _104  and  _105
REMARK   43  A    between atoms: _104  and  _107
REMARK   44  A    between atoms: _107  and  _108
REMARK   45  A    between atoms: _110  and  _112
REMARK   46  A    between atoms: _112  and  _113
REMARK   47  A    between atoms: _112  and  _115
REMARK   48  A    between atoms: _115  and  _116
REMARK   49  A    between atoms: _118  and  _120
REMARK   50  A    between atoms: _120  and  _121
REMARK   51  A    between atoms: _120  and  _123
REMARK   52  A    between atoms: _123  and  _124
REMARK   53  A    between atoms: _129  and  _131
REMARK   54  A    between atoms: _131  and  _132
REMARK   55  A    between atoms: _131  and  _134
REMARK   56  A    between atoms: _134  and  _135
REMARK   57  A    between atoms: _145  and  _147
REMARK   58  A    between atoms: _147  and  _148
REMARK   59  A    between atoms: _147  and  _150
REMARK   60  A    between atoms: _150  and  _151
REMARK   61  A    between atoms: _154  and  _156
REMARK   62  A    between atoms: _156  and  _157
REMARK   63  A    between atoms: _156  and  _159
REMARK   64  A    between atoms: _159  and  _160
REMARK   65  A    between atoms: _163  and  _165
REMARK   66  A    between atoms: _165  and  _166
REMARK   67  A    between atoms: _165  and  _168
REMARK   68  A    between atoms: _168  and  _169
REMARK   69  A    between atoms: _169  and  _170
REMARK   70  A    between atoms: _170  and  _171
REMARK   71  A    between atoms: _180  and  _182
REMARK   72  A    between atoms: _182  and  _183
REMARK   73  A    between atoms: _182  and  _185
REMARK   74  A    between atoms: _185  and  _186
REMARK   75  A    between atoms: _191  and  _192
REMARK   76  A    between atoms: _194  and  _196
REMARK   77  A    between atoms: _196  and  _197
REMARK   78  A    between atoms: _196  and  _199
REMARK   79  A    between atoms: _199  and  _200
REMARK   80  A    between atoms: _202  and  _204
REMARK   81  A    between atoms: _204  and  _205
REMARK   82  A    between atoms: _204  and  _207
REMARK   83  A    between atoms: _207  and  _208
REMARK   84  A    between atoms: _211  and  _213
REMARK   85  A    between atoms: _213  and  _214
REMARK   86  A    between atoms: _216  and  _218
REMARK   87  A    between atoms: _218  and  _219
REMARK   88  A    between atoms: _218  and  _221
REMARK   89  A    between atoms: _224  and  _226
REMARK   90  A    between atoms: _226  and  _227
REMARK   91  A    between atoms: _226  and  _229
REMARK   92  A    between atoms: _229  and  _230
REMARK   93  A    between atoms: _230  and  _231
REMARK   94  A    between atoms: _233  and  _235
REMARK   95  A    between atoms: _235  and  _236
REMARK   96  A    between atoms: _239  and  _241
REMARK   97  A    between atoms: _241  and  _242
REMARK   98  A    between atoms: _241  and  _244
REMARK   99  A    between atoms: _244  and  _245
REMARK  100  A    between atoms: _249  and  _250
REMARK  101  A    between atoms: _255  and  _257
REMARK  102  A    between atoms: _257  and  _258
REMARK  103  A    between atoms: _257  and  _260
REMARK  104  A    between atoms: _260  and  _261
REMARK  105  A    between atoms: _267  and  _269
REMARK  106  A    between atoms: _269  and  _270
REMARK  107  A    between atoms: _269  and  _272
REMARK  108  A    between atoms: _272  and  _273
REMARK  109  A    between atoms: _273  and  _274
REMARK  110  A    between atoms: _276  and  _278
REMARK  111  A    between atoms: _278  and  _279
REMARK  112  A    between atoms: _278  and  _281
REMARK  113  A    between atoms: _281  and  _282
REMARK  114  A    between atoms: _285  and  _287
REMARK  115  A    between atoms: _287  and  _288
REMARK  116  A    between atoms: _291  and  _293
REMARK  117  A    between atoms: _293  and  _294
REMARK  118  A    between atoms: _293  and  _296
REMARK  119  A    between atoms: _296  and  _297
REMARK  120  A    between atoms: _297  and  _298
REMARK  121  A    between atoms: _301  and  _303
REMARK  122  A    between atoms: _303  and  _304
REMARK  123  A    between atoms: _303  and  _306
REMARK  124  A    between atoms: _306  and  _307
REMARK  125  A    between atoms: _313  and  _315
REMARK  126  A    between atoms: _315  and  _316
REMARK  127  A    between atoms: _315  and  _318
REMARK  128  A    between atoms: _318  and  _319
REMARK  129  A    between atoms: _322  and  _324
REMARK  130  A    between atoms: _324  and  _325
REMARK  131  A    between atoms: _327  and  _329
REMARK  132  A    between atoms: _329  and  _330
REMARK  133  A    between atoms: _329  and  _332
REMARK  134  A    between atoms: _335  and  _337
REMARK  135  A    between atoms: _337  and  _338
REMARK  136  A    between atoms: _337  and  _340
REMARK  137  A    between atoms: _343  and  _345
REMARK  138  A    between atoms: _345  and  _346
REMARK  139  A    between atoms: _345  and  _348
REMARK  140  A    between atoms: _348  and  _349
REMARK  141  A    between atoms: _349  and  _350
REMARK  142  A    between atoms: _352  and  _354
REMARK  143  A    between atoms: _354  and  _355
REMARK  144  A    between atoms: _357  and  _359
REMARK  145  A    between atoms: _359  and  _360
REMARK  146  A    between atoms: _359  and  _362
REMARK  147  A    between atoms: _362  and  _363
REMARK  148  A    between atoms: _369  and  _371
REMARK  149  A    between atoms: _371  and  _372
REMARK  150  A    between atoms: _371  and  _374
REMARK  151  A    between atoms: _374  and  _375
REMARK  152  A    between atoms: _375  and  _376
REMARK  153  A    between atoms: _379  and  _381
REMARK  154  A    between atoms: _381  and  _382
REMARK  155  A    between atoms: _381  and  _384
REMARK  156  A    between atoms: _384  and  _385
REMARK  157  A    between atoms: _385  and  _386
REMARK  158  A    between atoms: _391  and  _393
REMARK  159  A    between atoms: _393  and  _394
REMARK  160  A    between atoms: _397  and  _399
REMARK  161  A    between atoms: _399  and  _400
REMARK  162  A    between atoms: _399  and  _402
REMARK  163  A    between atoms: _402  and  _403
REMARK  164  A    between atoms: _406  and  _408
REMARK  165  A    between atoms: _408  and  _409
REMARK  166  A    between atoms: _411  and  _413
REMARK  167  A    between atoms: _413  and  _414
REMARK  168  A    between atoms: _413  and  _416
REMARK  169  A    between atoms: _419  and  _421
REMARK  170  A    between atoms: _421  and  _422
REMARK  171  A    between atoms: _421  and  _424
REMARK  172  A    between atoms: _424  and  _425
REMARK  173  A    between atoms: _425  and  _426
REMARK  174  A    between atoms: _431  and  _433
REMARK  175  A    between atoms: _433  and  _434
REMARK  176  A    between atoms: _433  and  _436
REMARK  177  A    between atoms: _436  and  _437
REMARK  178  A    between atoms: _440  and  _442
REMARK  179  A    between atoms: _442  and  _443
REMARK  180  A    between atoms: _442  and  _445
REMARK  181  A    between atoms: _448  and  _450
REMARK  182  A    between atoms: _450  and  _451
REMARK  183  A    between atoms: _450  and  _453
REMARK  184  A    between atoms: _453  and  _454
REMARK  185  A    between atoms: _457  and  _459
REMARK  186  A    between atoms: _459  and  _460
REMARK  187  A    between atoms: _459  and  _462
REMARK  188  A    between atoms: _462  and  _463
REMARK  189  A    between atoms: _466  and  _468
REMARK  190  A    between atoms: _468  and  _469
REMARK  191  A    between atoms: _471  and  _473
REMARK  192  A    between atoms: _473  and  _474
REMARK  193  A    between atoms: _477  and  _479
REMARK  194  A    between atoms: _479  and  _480
REMARK  195  A    between atoms: _479  and  _482
REMARK  196  A    between atoms: _482  and  _483
REMARK  197  A    between atoms: _485  and  _487
REMARK  198  A    between atoms: _487  and  _488
REMARK  199  A    between atoms: _487  and  _490
REMARK  200  A    between atoms: _490  and  _491
REMARK  201  A    between atoms: _496  and  _497
REMARK  202  A    between atoms: _499  and  _501
REMARK  203  A    between atoms: _501  and  _502
REMARK  204  A    between atoms: _501  and  _504
REMARK  205  A    between atoms: _504  and  _505
REMARK  206  A    between atoms: _508  and  _510
REMARK  207  A    between atoms: _510  and  _511
REMARK  208  A    between atoms: _510  and  _513
REMARK  209  A    between atoms: _513  and  _514
REMARK  210  A    between atoms: _516  and  _518
REMARK  211  A    between atoms: _518  and  _519
REMARK  212  A    between atoms: _521  and  _523
REMARK  213  A    between atoms: _523  and  _524
REMARK  214  A    between atoms: _523  and  _526
REMARK  215  A    between atoms: _526  and  _527
REMARK  216  A    between atoms: _533  and  _535
REMARK  217  A    between atoms: _535  and  _536
REMARK  218  A    between atoms: _535  and  _538
REMARK  219  A    between atoms: _538  and  _539
REMARK  220  A    between atoms: _542  and  _544
REMARK  221  A    between atoms: _544  and  _545
REMARK  222  A    between atoms: _548  and  _550
REMARK  223  A    between atoms: _550  and  _551
REMARK  224  A    between atoms: _550  and  _553
REMARK  225  A    between atoms: _553  and  _554
REMARK  226  A    between atoms: _557  and  _559
REMARK  227  A    between atoms: _559  and  _560
REMARK  228  A    between atoms: _559  and  _562
REMARK  229  A    between atoms: _562  and  _563
REMARK  230  A    between atoms: _568  and  _570
REMARK  231  A    between atoms: _570  and  _571
REMARK  232  A    between atoms: _574  and  _576
REMARK  233  A    between atoms: _576  and  _577
REMARK  234  A    between atoms: _576  and  _579
REMARK  235  A    between atoms: _579  and  _580
REMARK  236  A    between atoms: _580  and  _581
REMARK  237  A    between atoms: _583  and  _585
REMARK  238  A    between atoms: _585  and  _586
REMARK  239  A    between atoms: _585  and  _588
REMARK  240  A    between atoms: _588  and  _589
REMARK  241  A    between atoms: _592  and  _594
REMARK  242  A    between atoms: _594  and  _595
REMARK  243  A    between atoms: _594  and  _597
REMARK  244  A    between atoms: _597  and  _598
REMARK  245  A    between atoms: _602  and  _603
REMARK  246  A    between atoms: _608  and  _610
REMARK  247  A    between atoms: _610  and  _611
REMARK  248  A    between atoms: _610  and  _613
REMARK  249  A    between atoms: _613  and  _614
REMARK  250  A    between atoms: _617  and  _619
REMARK  251  A    between atoms: _619  and  _620
REMARK  252  A    between atoms: _622  and  _624
REMARK  253  A    between atoms: _624  and  _625
REMARK  254  A    between atoms: _624  and  _627
REMARK  255  A    between atoms: _627  and  _628
REMARK  256  A    between atoms: _631  and  _633
REMARK  257  A    between atoms: _633  and  _634
REMARK  258  A    between atoms: _633  and  _636
REMARK  259  A    between atoms: _636  and  _637
REMARK  260  A    between atoms: _647  and  _649
REMARK  261  A    between atoms: _649  and  _650
REMARK  262  A    between atoms: _653  and  _655
REMARK  263  A    between atoms: _655  and  _656
REMARK  264  A    between atoms: _655  and  _658
REMARK  265  A    between atoms: _658  and  _659
REMARK  266  A    between atoms: _662  and  _664
REMARK  267  A    between atoms: _664  and  _665
REMARK  268  A    between atoms: _667  and  _669
REMARK  269  A    between atoms: _669  and  _670
REMARK  270  A    between atoms: _673  and  _675
REMARK  271  A    between atoms: _675  and  _676
REMARK  272  A    between atoms: _675  and  _678
REMARK  273  A    between atoms: _678  and  _679
REMARK  274  A    between atoms: _682  and  _684
REMARK  275  A    between atoms: _684  and  _685
REMARK  276  A    between atoms: _684  and  _687
REMARK  277  A    between atoms: _687  and  _688
REMARK                            x       y       z     vdW  Elec       q    Type
REMARK                         _______ _______ _______ _____ _____    ______ ____
ROOT
ATOM      1  CB  PHE A   1     -11.712 -27.354 -22.731  0.00  0.00    +0.051 C 
ENDROOT
BRANCH   1   2
ATOM      2  CG  PHE A   1     -13.120 -27.897 -22.733  0.00  0.00    -0.020 A 
ATOM      3  CD2 PHE A   1     -14.172 -27.149 -22.207  0.00  0.00    -0.004 A 
ATOM      4  CE2 PHE A   1     -15.481 -27.660 -22.204  0.00  0.00    -0.000 A 
ATOM      5  CZ  PHE A   1     -15.727 -28.931 -22.725  0.00  0.00    -0.000 A 
ATOM      6  CE1 PHE A   1     -14.688 -29.689 -23.241  0.00  0.00    -0.000 A 
ATOM      7  CD1 PHE A   1     -13.383 -29.168 -23.243  0.00  0.00    -0.004 A 
ENDBRANCH   1   2
BRANCH   1   8
ATOM      8  CA  PHE A   1     -10.745 -28.183 -21.883  0.00  0.00    +0.137 C 
BRANCH   8   9
ATOM      9  N   PHE A   1     -11.197 -28.210 -20.492  0.00  0.00    -0.239 NA
ATOM     10  H   PHE A   1     -11.420 -27.310 -20.020  0.00  0.00    +0.142 HD
ENDBRANCH   8   9
BRANCH   8  11
ATOM     11  C   PHE A   1      -9.309 -27.702 -22.079  0.00  0.00    +0.224 C 
ATOM     12  O   PHE A   1      -8.720 -27.876 -23.146  0.00  0.00    -0.287 OA
ENDBRANCH   8  11
ENDBRANCH   1   8
TORSDOF 4
REMARK  Name = ../refined-set-2016/3own/3own_pocket.pdb
REMARK  277 active torsions:
REMARK  status: ('A' for Active; 'I' for Inactive)
REMARK    1  A    between atoms: _1  and  _3
REMARK    2  A    between atoms: _3  and  _4
REMARK    3  A    between atoms: _3  and  _6
REMARK    4  A    between atoms: _6  and  _7
REMARK    5  A    between atoms: _12  and  _13
REMARK    6  A    between atoms: _15  and  _17
REMARK    7  A    between atoms: _17  and  _18
REMARK    8  A    between atoms: _17  and  _20
REMARK    9  A    between atoms: _20  and  _21
REMARK   10  A    between atoms: _24  and  _26
REMARK   11  A    between atoms: _26  and  _27
REMARK   12  A    between atoms: _26  and  _29
REMARK   13  A    between atoms: _29  and  _30
REMARK   14  A    between atoms: _33  and  _35
REMARK   15  A    between atoms: _35  and  _36
REMARK   16  A    between atoms: _35  and  _38
REMARK   17  A    between atoms: _38  and  _39
REMARK   18  A    between atoms: _39  and  _40
REMARK   19  A    between atoms: _45  and  _47
REMARK   20  A    between atoms: _47  and  _48
REMARK   21  A    between atoms: _47  and  _50
REMARK   22  A    between atoms: _50  and  _51
REMARK   23  A    between atoms: _56  and  _57
REMARK   24  A    between atoms: _59  and  _61
REMARK   25  A    between atoms: _61  and  _62
REMARK   26  A    between atoms: _61  and  _64
REMARK   27  A    between atoms: _67  and  _69
REMARK   28  A    between atoms: _69  and  _70
REMARK   29  A    between atoms: _69  and  _72
REMARK   30  A    between atoms: _72  and  _73
REMARK   31  A    between atoms: _79  and  _81
REMARK   32  A    between atoms: _81  and  _82
REMARK   33  A    between atoms: _81  and  _84
REMARK   34  A    between atoms: _84  and  _85
REMARK   35  A    between atoms: _88  and  _90
REMARK   36  A    between atoms: _90  and  _91
REMARK   37  A    between atoms: _90  and  _93
REMARK   38  A    between atoms: _93  and  _94
REMARK   39  A    between atoms: _97  and  _99
REMARK   40  A    between atoms: _99  and  _100
REMARK   41  A    between atoms: _102  and  _104
REMARK   42  A    between atoms: _104  and  _105
REMARK   43  A    between atoms: _104  and  _107
REMARK   44  A    between atoms: _107  and  _108
REMARK   45  A    between atoms: _110  and  _112
REMARK   46  A    between atoms: _112  and  _113
REMARK   47  A    between atoms: _112  and  _115
REMARK   48  A    between atoms: _115  and  _116
REMARK   49  A    between atoms: _118  and  _120
REMARK   50  A    between atoms: _120  and  _121
REMARK   51  A    between atoms: _120  and  _123
REMARK   52  A    between atoms: _123  and  _124
REMARK   53  A    between atoms: _129  and  _131
REMARK   54  A    between atoms: _131  and  _132
REMARK   55  A    between atoms: _131  and  _134
REMARK   56  A    between atoms: _134  and  _135
REMARK   57  A    between atoms: _145  and  _147
REMARK   58  A    between atoms: _147  and  _148
REMARK   59  A    between atoms: _147  and  _150
REMARK   60  A    between atoms: _150  and  _151
REMARK   61  A    between atoms: _154  and  _156
REMARK   62  A    between atoms: _156  and  _157
REMARK   63  A    between atoms: _156  and  _159
REMARK   64  A    between atoms: _159  and  _160
REMARK   65  A    between atoms: _163  and  _165
REMARK   66  A    between atoms: _165  and  _166
REMARK   67  A    between atoms: _165  and  _168
REMARK   68  A    between atoms: _168  and  _169
REMARK   69  A    between atoms: _169  and  _170
REMARK   70  A    between atoms: _170  and  _171
REMARK   71  A    between atoms: _180  and  _182
REMARK   72  A    between atoms: _182  and  _183
REMARK   73  A    between atoms: _182  and  _185
REMARK   74  A    between atoms: _185  and  _186
REMARK   75  A    between atoms: _191  and  _192
REMARK   76  A    between atoms: _194  and  _196
REMARK   77  A    between atoms: _196  and  _197
REMARK   78  A    between atoms: _196  and  _199
REMARK   79  A    between atoms: _199  and  _200
REMARK   80  A    between atoms: _202  and  _204
REMARK   81  A    between atoms: _204  and  _205
REMARK   82  A    between atoms: _204  and  _207
REMARK   83  A    between atoms: _207  and  _208
REMARK   84  A    between atoms: _211  and  _213
REMARK   85  A    between atoms: _213  and  _214
REMARK   86  A    between atoms: _216  and  _218
REMARK   87  A    between atoms: _218  and  _219
REMARK   88  A    between atoms: _218  and  _221
REMARK   89  A    between atoms: _224  and  _226
REMARK   90  A    between atoms: _226  and  _227
REMARK   91  A    between atoms: _226  and  _229
REMARK   92  A    between atoms: _229  and  _230
REMARK   93  A    between atoms: _230  and  _231
REMARK   94  A    between atoms: _233  and  _235
REMARK   95  A    between atoms: _235  and  _236
REMARK   96  A    between atoms: _239  and  _241
REMARK   97  A    between atoms: _241  and  _242
REMARK   98  A    between atoms: _241  and  _244
REMARK   99  A    between atoms: _244  and  _245
REMARK  100  A    between atoms: _249  and  _250
REMARK  101  A    between atoms: _255  and  _257
REMARK  102  A    between atoms: _257  and  _258
REMARK  103  A    between atoms: _257  and  _260
REMARK  104  A    between atoms: _260  and  _261
REMARK  105  A    between atoms: _267  and  _269
REMARK  106  A    between atoms: _269  and  _270
REMARK  107  A    between atoms: _269  and  _272
REMARK  108  A    between atoms: _272  and  _273
REMARK  109  A    between atoms: _273  and  _274
REMARK  110  A    between atoms: _276  and  _278
REMARK  111  A    between atoms: _278  and  _279
REMARK  112  A    between atoms: _278  and  _281
REMARK  113  A    between atoms: _281  and  _282
REMARK  114  A    between atoms: _285  and  _287
REMARK  115  A    between atoms: _287  and  _288
REMARK  116  A    between atoms: _291  and  _293
REMARK  117  A    between atoms: _293  and  _294
REMARK  118  A    between atoms: _293  and  _296
REMARK  119  A    between atoms: _296  and  _297
REMARK  120  A    between atoms: _297  and  _298
REMARK  121  A    between atoms: _301  and  _303
REMARK  122  A    between atoms: _303  and  _304
REMARK  123  A    between atoms: _303  and  _306
REMARK  124  A    between atoms: _306  and  _307
REMARK  125  A    between atoms: _313  and  _315
REMARK  126  A    between atoms: _315  and  _316
REMARK  127  A    between atoms: _315  and  _318
REMARK  128  A    between atoms: _318  and  _319
REMARK  129  A    between atoms: _322  and  _324
REMARK  130  A    between atoms: _324  and  _325
REMARK  131  A    between atoms: _327  and  _329
REMARK  132  A    between atoms: _329  and  _330
REMARK  133  A    between atoms: _329  and  _332
REMARK  134  A    between atoms: _335  and  _337
REMARK  135  A    between atoms: _337  and  _338
REMARK  136  A    between atoms: _337  and  _340
REMARK  137  A    between atoms: _343  and  _345
REMARK  138  A    between atoms: _345  and  _346
REMARK  139  A    between atoms: _345  and  _348
REMARK  140  A    between atoms: _348  and  _349
REMARK  141  A    between atoms: _349  and  _350
REMARK  142  A    between atoms: _352  and  _354
REMARK  143  A    between atoms: _354  and  _355
REMARK  144  A    between atoms: _357  and  _359
REMARK  145  A    between atoms: _359  and  _360
REMARK  146  A    between atoms: _359  and  _362
REMARK  147  A    between atoms: _362  and  _363
REMARK  148  A    between atoms: _369  and  _371
REMARK  149  A    between atoms: _371  and  _372
REMARK  150  A    between atoms: _371  and  _374
REMARK  151  A    between atoms: _374  and  _375
REMARK  152  A    between atoms: _375  and  _376
REMARK  153  A    between atoms: _379  and  _381
REMARK  154  A    between atoms: _381  and  _382
REMARK  155  A    between atoms: _381  and  _384
REMARK  156  A    between atoms: _384  and  _385
REMARK  157  A    between atoms: _385  and  _386
REMARK  158  A    between atoms: _391  and  _393
REMARK  159  A    between atoms: _393  and  _394
REMARK  160  A    between atoms: _397  and  _399
REMARK  161  A    between atoms: _399  and  _400
REMARK  162  A    between atoms: _399  and  _402
REMARK  163  A    between atoms: _402  and  _403
REMARK  164  A    between atoms: _406  and  _408
REMARK  165  A    between atoms: _408  and  _409
REMARK  166  A    between atoms: _411  and  _413
REMARK  167  A    between atoms: _413  and  _414
REMARK  168  A    between atoms: _413  and  _416
REMARK  169  A    between atoms: _419  and  _421
REMARK  170  A    between atoms: _421  and  _422
REMARK  171  A    between atoms: _421  and  _424
REMARK  172  A    between atoms: _424  and  _425
REMARK  173  A    between atoms: _425  and  _426
REMARK  174  A    between atoms: _431  and  _433
REMARK  175  A    between atoms: _433  and  _434
REMARK  176  A    between atoms: _433  and  _436
REMARK  177  A    between atoms: _436  and  _437
REMARK  178  A    between atoms: _440  and  _442
REMARK  179  A    between atoms: _442  and  _443
REMARK  180  A    between atoms: _442  and  _445
REMARK  181  A    between atoms: _448  and  _450
REMARK  182  A    between atoms: _450  and  _451
REMARK  183  A    between atoms: _450  and  _453
REMARK  184  A    between atoms: _453  and  _454
REMARK  185  A    between atoms: _457  and  _459
REMARK  186  A    between atoms: _459  and  _460
REMARK  187  A    between atoms: _459  and  _462
REMARK  188  A    between atoms: _462  and  _463
REMARK  189  A    between atoms: _466  and  _468
REMARK  190  A    between atoms: _468  and  _469
REMARK  191  A    between atoms: _471  and  _473
REMARK  192  A    between atoms: _473  and  _474
REMARK  193  A    between atoms: _477  and  _479
REMARK  194  A    between atoms: _479  and  _480
REMARK  195  A    between atoms: _479  and  _482
REMARK  196  A    between atoms: _482  and  _483
REMARK  197  A    between atoms: _485  and  _487
REMARK  198  A    between atoms: _487  and  _488
REMARK  199  A    between atoms: _487  and  _490
REMARK  200  A    between atoms: _490  and  _491
REMARK  201  A    between atoms: _496  and  _497
REMARK  202  A    between atoms: _499  and  _501
REMARK  203  A    between atoms: _501  and  _502
REMARK  204  A    between atoms: _501  and  _504
REMARK  205  A    between atoms: _504  and  _505
REMARK  206  A    between atoms: _508  and  _510
REMARK  207  A    between atoms: _510  and  _511
REMARK  208  A    between atoms: _510  and  _513
REMARK  209  A    between atoms: _513  and  _514
REMARK  210  A    between atoms: _516  and  _518
REMARK  211  A    between atoms: _518  and  _519
REMARK  212  A    between atoms: _521  and  _523
REMARK  213  A    between atoms: _523  and  _524
REMARK  214  A    between atoms: _523  and  _526
REMARK  215  A    between atoms: _526  and  _527
REMARK  216  A    between atoms: _533  and  _535
REMARK  217  A    between atoms: _535  and  _536
REMARK  218  A    between atoms: _535  and  _538
REMARK  219  A    between atoms: _538  and  _539
REMARK  220  A    between atoms: _542  and  _544
REMARK  221  A    between atoms: _544  and  _545
REMARK  222  A    between atoms: _548  and  _550
REMARK  223  A    between atoms: _550  and  _551
REMARK  224  A    between atoms: _550  and  _553
REMARK  225  A    between atoms: _553  and  _554
REMARK  226  A    between atoms: _557  and  _559
REMARK  227  A    between atoms: _559  and  _560
REMARK  228  A    between atoms: _559  and  _562
REMARK  229  A    between atoms: _562  and  _563
REMARK  230  A    between atoms: _568  and  _570
REMARK  231  A    between atoms: _570  and  _571
REMARK  232  A    between atoms: _574  and  _576
REMARK  233  A    between atoms: _576  and  _577
REMARK  234  A    between atoms: _576  and  _579
REMARK  235  A    between atoms: _579  and  _580
REMARK  236  A    between atoms: _580  and  _581
REMARK  237  A    between atoms: _583  and  _585
REMARK  238  A    between atoms: _585  and  _586
REMARK  239  A    between atoms: _585  and  _588
REMARK  240  A    between atoms: _588  and  _589
REMARK  241  A    between atoms: _592  and  _594
REMARK  242  A    between atoms: _594  and  _595
REMARK  243  A    between atoms: _594  and  _597
REMARK  244  A    between atoms: _597  and  _598
REMARK  245  A    between atoms: _602  and  _603
REMARK  246  A    between atoms: _608  and  _610
REMARK  247  A    between atoms: _610  and  _611
REMARK  248  A    between atoms: _610  and  _613
REMARK  249  A    between atoms: _613  and  _614
REMARK  250  A    between atoms: _617  and  _619
REMARK  251  A    between atoms: _619  and  _620
REMARK  252  A    between atoms: _622  and  _624
REMARK  253  A    between atoms: _624  and  _625
REMARK  254  A    between atoms: _624  and  _627
REMARK  255  A    between atoms: _627  and  _628
REMARK  256  A    between atoms: _631  and  _633
REMARK  257  A    between atoms: _633  and  _634
REMARK  258  A    between atoms: _633  and  _636
REMARK  259  A    between atoms: _636  and  _637
REMARK  260  A    between atoms: _647  and  _649
REMARK  261  A    between atoms: _649  and  _650
REMARK  262  A    between atoms: _653  and  _655
REMARK  263  A    between atoms: _655  and  _656
REMARK  264  A    between atoms: _655  and  _658
REMARK  265  A    between atoms: _658  and  _659
REMARK  266  A    between atoms: _662  and  _664
REMARK  267  A    between atoms: _664  and  _665
REMARK  268  A    between atoms: _667  and  _669
REMARK  269  A    between atoms: _669  and  _670
REMARK  270  A    between atoms: _673  and  _675
REMARK  271  A    between atoms: _675  and  _676
REMARK  272  A    between atoms: _675  and  _678
REMARK  273  A    between atoms: _678  and  _679
REMARK  274  A    between atoms: _682  and  _684
REMARK  275  A    between atoms: _684  and  _685
REMARK  276  A    between atoms: _684  and  _687
REMARK  277  A    between atoms: _687  and  _688
REMARK                            x       y       z     vdW  Elec       q    Type
REMARK                         _______ _______ _______ _____ _____    ______ ____
ROOT
ATOM      1  CA  ALA A   5      -4.660 -32.660 -26.016  0.00  0.00    +0.149 C 
ATOM      2  CB  ALA A   5      -5.155 -33.527 -24.826  0.00  0.00    +0.031 C 
ENDROOT
BRANCH   1   4
ATOM      3  C   HIS A   4      -3.772 -30.357 -26.161  0.00  0.00    +0.241 C 
ATOM      4  N   ALA A   5      -4.634 -31.246 -25.675  0.00  0.00    -0.297 N 
ATOM      5  H   ALA A   5      -5.345 -30.903 -24.998  0.00  0.00    +0.150 HD
ATOM      6  O   HIS A   4      -2.786 -30.650 -26.830  0.00  0.00    -0.273 OA
BRANCH   3   7
ATOM      7  CA  HIS A   4      -4.077 -28.913 -25.806  0.00  0.00    +0.155 C 
BRANCH   7  10
ATOM      8  C   ILE A   3      -2.450 -27.139 -25.217  0.00  0.00    +0.241 C 
ATOM      9  O   ILE A   3      -2.836 -27.031 -24.041  0.00  0.00    -0.273 OA
ATOM     10  N   HIS A   4      -2.975 -27.994 -26.105  0.00  0.00    -0.297 N 
ATOM     11  H   HIS A   4      -2.576 -28.006 -27.065  0.00  0.00    +0.150 HD
BRANCH   8  12
ATOM     12  CA  ILE A   3      -1.329 -26.237 -25.738  0.00  0.00    +0.149 C 
BRANCH  12  14
ATOM     13  C   ALA A   2      -1.595 -23.848 -26.322  0.00  0.00    +0.241 C 
ATOM     14  N   ILE A   3      -1.700 -24.851 -25.445  0.00  0.00    -0.297 N 
ATOM     15  H   ILE A   3      -2.068 -24.634 -24.497  0.00  0.00    +0.150 HD
ATOM     16  O   ALA A   2      -1.199 -23.996 -27.485  0.00  0.00    -0.273 OA
BRANCH  13  17
ATOM     17  CA  ALA A   2      -1.993 -22.469 -25.814  0.00  0.00    +0.149 C 
ATOM     18  CB  ALA A   2      -1.351 -21.348 -26.706  0.00  0.00    +0.031 C 
BRANCH  17  21
ATOM     19  C   LEU A   1      -2.291 -22.705 -23.384  0.00  0.00    +0.238 C 
ATOM     20  O   LEU A   1      -3.376 -23.293 -23.503  0.00  0.00    -0.274 OA
ATOM     21  N   ALA A   2      -1.576 -22.286 -24.425  0.00  0.00    -0.297 N 
ATOM     22  H   ALA A   2      -0.673 -21.803 -24.241  0.00  0.00    +0.150 HD
BRANCH  19  23
ATOM     23  CA  LEU A   1      -1.678 -22.414 -22.002  0.00  0.00    +0.145 C 
BRANCH  23  24
ATOM     24  N   LEU A   1      -2.718 -22.115 -21.017  0.00  0.00    -0.238 NA
ATOM     25  H   LEU A   1      -3.186 -22.905 -20.529  0.00  0.00    +0.142 HD
ENDBRANCH  23  24
BRANCH  23  26
ATOM     26  CB  LEU A   1      -0.828 -23.611 -21.563  0.00  0.00    +0.026 C 
BRANCH  26  27
ATOM     27  CG  LEU A   1      -0.163 -23.546 -20.178  0.00  0.00    +0.002 C 
ATOM     28  CD2 LEU A   1       0.737 -24.739 -19.989  0.00  0.00    +0.000 C 
ATOM     29  CD1 LEU A   1       0.640 -22.258 -20.029  0.00  0.00    +0.000 C 
ENDBRANCH  26  27
ENDBRANCH  23  26
ENDBRANCH  19  23
ENDBRANCH  17  21
ENDBRANCH  13  17
ENDBRANCH  12  14
BRANCH  12  30
ATOM     30  CB  ILE A   3       0.053 -26.601 -25.090  0.00  0.00    +0.027 C 
ATOM     31  CG2 ILE A   3       0.458 -28.042 -25.394  0.00  0.00    +0.002 C 
BRANCH  30  32
ATOM     32  CG1 ILE A   3       1.098 -25.546 -25.473  0.00  0.00    +0.002 C 
ATOM     33  CD1 ILE A   3       2.434 -25.695 -24.799  0.00  0.00    +0.000 C 
ENDBRANCH  30  32
ENDBRANCH  12  30
ENDBRANCH   8  12
ENDBRANCH   7  10
BRANCH   7  34
ATOM     34  CB  HIS A   4      -5.374 -28.444 -26.498  0.00  0.00    +0.076 C 
BRANCH  34  35
ATOM     35  CG  HIS A   4      -5.921 -27.178 -25.920  0.00  0.00    +0.082 A 
ATOM     36  CD2 HIS A   4      -6.858 -26.963 -24.970  0.00  0.00    +0.115 A 
ATOM     37  NE2 HIS A   4      -6.931 -25.602 -24.768  0.00  0.00    -0.221 NA
ATOM     38  CE1 HIS A   4      -6.054 -25.005 -25.552  0.00  0.00    +0.199 A 
ATOM     39  ND1 HIS A   4      -5.433 -25.935 -26.257  0.00  0.00    -0.227 NA
ENDBRANCH  34  35
ENDBRANCH   7  34
ENDBRANCH   3   7
ENDBRANCH   1   4
BRANCH   1  40
ATOM     40  C   ALA A   5      -5.620 -32.827 -27.187  0.00  0.00    +0.241 C 
ATOM     41  O   ALA A   5      -6.753 -32.339 -27.160  0.00  0.00    -0.273 OA
ATOM     42  N   MET A   6      -5.146 -33.469 -28.238  0.00  0.00    -0.297 N 
ATOM     43  H   MET A   6      -4.137 -33.714 -28.292  0.00  0.00    +0.150 HD
BRANCH  42  44
ATOM     44  CA  MET A   6      -6.035 -33.826 -29.304  0.00  0.00    +0.149 C 
BRANCH  44  45
ATOM     45  C   MET A   6      -5.638 -35.183 -29.854  0.00  0.00    +0.241 C 
ATOM     46  N   ASP A   7      -6.566 -36.116 -29.807  0.00  0.00    -0.297 N 
ATOM     47  H   ASP A   7      -7.497 -35.878 -29.409  0.00  0.00    +0.150 HD
ATOM     48  O   MET A   6      -4.564 -35.352 -30.396  0.00  0.00    -0.273 OA
BRANCH  46  49
ATOM     49  CA  ASP A   7      -6.334 -37.472 -30.294  0.00  0.00    +0.160 C 
BRANCH  49  50
ATOM     50  C   ASP A   7      -7.006 -37.725 -31.631  0.00  0.00    +0.241 C 
ATOM     51  O   ASP A   7      -8.223 -37.839 -31.685  0.00  0.00    -0.273 OA
ATOM     52  N   ILE A   8      -6.208 -37.825 -32.687  0.00  0.00    -0.297 N 
ATOM     53  H   ILE A   8      -5.182 -37.740 -32.541  0.00  0.00    +0.150 HD
BRANCH  52  54
ATOM     54  CA  ILE A   8      -6.697 -38.047 -34.038  0.00  0.00    +0.149 C 
BRANCH  54  55
ATOM     55  C   ILE A   8      -6.487 -39.531 -34.285  0.00  0.00    +0.244 C 
ATOM     56  O   ILE A   8      -5.363 -40.017 -34.131  0.00  0.00    -0.273 OA
ATOM     57  N   PRO A   9      -7.572 -40.254 -34.623  0.00  0.00    -0.273 N 
ATOM     58  CD  PRO A   9      -8.979 -39.807 -34.601  0.00  0.00    +0.094 C 
ATOM     59  CG  PRO A   9      -9.717 -41.085 -34.330  0.00  0.00    +0.024 C 
ATOM     60  CB  PRO A   9      -8.925 -42.117 -35.142  0.00  0.00    +0.030 C 
ATOM     61  CA  PRO A   9      -7.456 -41.677 -34.973  0.00  0.00    +0.140 C 
BRANCH  61  62
ATOM     62  C   PRO A   9      -6.620 -41.973 -36.227  0.00  0.00    +0.227 C 
ATOM     63  O   PRO A   9      -6.545 -41.153 -37.134  0.00  0.00    -0.286 OA
ENDBRANCH  61  62
ENDBRANCH  54  55
BRANCH  54  64
ATOM     64  CB  ILE A   8      -5.908 -37.219 -35.137  0.00  0.00    +0.027 C 
ATOM     65  CG2 ILE A   8      -6.302 -37.631 -36.572  0.00  0.00    +0.002 C 
BRANCH  64  66
ATOM     66  CG1 ILE A   8      -6.199 -35.718 -35.009  0.00  0.00    +0.002 C 
ATOM     67  CD1 ILE A   8      -5.261 -35.038 -34.108  0.00  0.00    +0.000 C 
ENDBRANCH  64  66
ENDBRANCH  54  64
ENDBRANCH  52  54
ENDBRANCH  49  50
BRANCH  49  68
ATOM     68  CB  ASP A   7      -6.870 -38.473 -29.275  0.00  0.00    +0.143 C 
BRANCH  68  69
ATOM     69  CG  ASP A   7      -6.067 -38.465 -28.001  0.00  0.00    +0.367 C 
ATOM     70  OD2 ASP A   7      -6.686 -38.437 -26.929  0.00  0.00    -0.246 OA
ATOM     71  OD1 ASP A   7      -4.827 -38.480 -28.079  0.00  0.00    -0.246 OA
ENDBRANCH  68  69
ENDBRANCH  49  68
ENDBRANCH  46  49
ENDBRANCH  44  45
BRANCH  44  72
ATOM     72  CB  MET A   6      -6.088 -32.753 -30.400  0.00  0.00    +0.041 C 
BRANCH  72  73
ATOM     73  CG  MET A   6      -7.038 -33.107 -31.552  0.00  0.00    +0.060 C 
BRANCH  73  74
ATOM     74  SD  MET A   6      -7.237 -31.810 -32.837  0.00  0.00    -0.139 S 
ATOM     75  CE  MET A   6      -5.657 -31.778 -33.676  0.00  0.00    +0.069 C 
ENDBRANCH  73  74
ENDBRANCH  72  73
ENDBRANCH  44  72
ENDBRANCH  42  44
ENDBRANCH   1  40
TORSDOF 30
REMARK  Name = ../refined-set-2016/3own/3own_pocket.pdb
REMARK  277 active torsions:
REMARK  status: ('A' for Active; 'I' for Inactive)
REMARK    1  A    between atoms: _1  and  _3
REMARK    2  A    between atoms: _3  and  _4
REMARK    3  A    between atoms: _3  and  _6
REMARK    4  A    between atoms: _6  and  _7
REMARK    5  A    between atoms: _12  and  _13
REMARK    6  A    between atoms: _15  and  _17
REMARK    7  A    between atoms: _17  and  _18
REMARK    8  A    between atoms: _17  and  _20
REMARK    9  A    between atoms: _20  and  _21
REMARK   10  A    between atoms: _24  and  _26
REMARK   11  A    between atoms: _26  and  _27
REMARK   12  A    between atoms: _26  and  _29
REMARK   13  A    between atoms: _29  and  _30
REMARK   14  A    between atoms: _33  and  _35
REMARK   15  A    between atoms: _35  and  _36
REMARK   16  A    between atoms: _35  and  _38
REMARK   17  A    between atoms: _38  and  _39
REMARK   18  A    between atoms: _39  and  _40
REMARK   19  A    between atoms: _45  and  _47
REMARK   20  A    between atoms: _47  and  _48
REMARK   21  A    between atoms: _47  and  _50
REMARK   22  A    between atoms: _50  and  _51
REMARK   23  A    between atoms: _56  and  _57
REMARK   24  A    between atoms: _59  and  _61
REMARK   25  A    between atoms: _61  and  _62
REMARK   26  A    between atoms: _61  and  _64
REMARK   27  A    between atoms: _67  and  _69
REMARK   28  A    between atoms: _69  and  _70
REMARK   29  A    between atoms: _69  and  _72
REMARK   30  A    between atoms: _72  and  _73
REMARK   31  A    between atoms: _79  and  _81
REMARK   32  A    between atoms: _81  and  _82
REMARK   33  A    between atoms: _81  and  _84
REMARK   34  A    between atoms: _84  and  _85
REMARK   35  A    between atoms: _88  and  _90
REMARK   36  A    between atoms: _90  and  _91
REMARK   37  A    between atoms: _90  and  _93
REMARK   38  A    between atoms: _93  and  _94
REMARK   39  A    between atoms: _97  and  _99
REMARK   40  A    between atoms: _99  and  _100
REMARK   41  A    between atoms: _102  and  _104
REMARK   42  A    between atoms: _104  and  _105
REMARK   43  A    between atoms: _104  and  _107
REMARK   44  A    between atoms: _107  and  _108
REMARK   45  A    between atoms: _110  and  _112
REMARK   46  A    between atoms: _112  and  _113
REMARK   47  A    between atoms: _112  and  _115
REMARK   48  A    between atoms: _115  and  _116
REMARK   49  A    between atoms: _118  and  _120
REMARK   50  A    between atoms: _120  and  _121
REMARK   51  A    between atoms: _120  and  _123
REMARK   52  A    between atoms: _123  and  _124
REMARK   53  A    between atoms: _129  and  _131
REMARK   54  A    between atoms: _131  and  _132
REMARK   55  A    between atoms: _131  and  _134
REMARK   56  A    between atoms: _134  and  _135
REMARK   57  A    between atoms: _145  and  _147
REMARK   58  A    between atoms: _147  and  _148
REMARK   59  A    between atoms: _147  and  _150
REMARK   60  A    between atoms: _150  and  _151
REMARK   61  A    between atoms: _154  and  _156
REMARK   62  A    between atoms: _156  and  _157
REMARK   63  A    between atoms: _156  and  _159
REMARK   64  A    between atoms: _159  and  _160
REMARK   65  A    between atoms: _163  and  _165
REMARK   66  A    between atoms: _165  and  _166
REMARK   67  A    between atoms: _165  and  _168
REMARK   68  A    between atoms: _168  and  _169
REMARK   69  A    between atoms: _169  and  _170
REMARK   70  A    between atoms: _170  and  _171
REMARK   71  A    between atoms: _180  and  _182
REMARK   72  A    between atoms: _182  and  _183
REMARK   73  A    between atoms: _182  and  _185
REMARK   74  A    between atoms: _185  and  _186
REMARK   75  A    between atoms: _191  and  _192
REMARK   76  A    between atoms: _194  and  _196
REMARK   77  A    between atoms: _196  and  _197
REMARK   78  A    between atoms: _196  and  _199
REMARK   79  A    between atoms: _199  and  _200
REMARK   80  A    between atoms: _202  and  _204
REMARK   81  A    between atoms: _204  and  _205
REMARK   82  A    between atoms: _204  and  _207
REMARK   83  A    between atoms: _207  and  _208
REMARK   84  A    between atoms: _211  and  _213
REMARK   85  A    between atoms: _213  and  _214
REMARK   86  A    between atoms: _216  and  _218
REMARK   87  A    between atoms: _218  and  _219
REMARK   88  A    between atoms: _218  and  _221
REMARK   89  A    between atoms: _224  and  _226
REMARK   90  A    between atoms: _226  and  _227
REMARK   91  A    between atoms: _226  and  _229
REMARK   92  A    between atoms: _229  and  _230
REMARK   93  A    between atoms: _230  and  _231
REMARK   94  A    between atoms: _233  and  _235
REMARK   95  A    between atoms: _235  and  _236
REMARK   96  A    between atoms: _239  and  _241
REMARK   97  A    between atoms: _241  and  _242
REMARK   98  A    between atoms: _241  and  _244
REMARK   99  A    between atoms: _244  and  _245
REMARK  100  A    between atoms: _249  and  _250
REMARK  101  A    between atoms: _255  and  _257
REMARK  102  A    between atoms: _257  and  _258
REMARK  103  A    between atoms: _257  and  _260
REMARK  104  A    between atoms: _260  and  _261
REMARK  105  A    between atoms: _267  and  _269
REMARK  106  A    between atoms: _269  and  _270
REMARK  107  A    between atoms: _269  and  _272
REMARK  108  A    between atoms: _272  and  _273
REMARK  109  A    between atoms: _273  and  _274
REMARK  110  A    between atoms: _276  and  _278
REMARK  111  A    between atoms: _278  and  _279
REMARK  112  A    between atoms: _278  and  _281
REMARK  113  A    between atoms: _281  and  _282
REMARK  114  A    between atoms: _285  and  _287
REMARK  115  A    between atoms: _287  and  _288
REMARK  116  A    between atoms: _291  and  _293
REMARK  117  A    between atoms: _293  and  _294
REMARK  118  A    between atoms: _293  and  _296
REMARK  119  A    between atoms: _296  and  _297
REMARK  120  A    between atoms: _297  and  _298
REMARK  121  A    between atoms: _301  and  _303
REMARK  122  A    between atoms: _303  and  _304
REMARK  123  A    between atoms: _303  and  _306
REMARK  124  A    between atoms: _306  and  _307
REMARK  125  A    between atoms: _313  and  _315
REMARK  126  A    between atoms: _315  and  _316
REMARK  127  A    between atoms: _315  and  _318
REMARK  128  A    between atoms: _318  and  _319
REMARK  129  A    between atoms: _322  and  _324
REMARK  130  A    between atoms: _324  and  _325
REMARK  131  A    between atoms: _327  and  _329
REMARK  132  A    between atoms: _329  and  _330
REMARK  133  A    between atoms: _329  and  _332
REMARK  134  A    between atoms: _335  and  _337
REMARK  135  A    between atoms: _337  and  _338
REMARK  136  A    between atoms: _337  and  _340
REMARK  137  A    between atoms: _343  and  _345
REMARK  138  A    between atoms: _345  and  _346
REMARK  139  A    between atoms: _345  and  _348
REMARK  140  A    between atoms: _348  and  _349
REMARK  141  A    between atoms: _349  and  _350
REMARK  142  A    between atoms: _352  and  _354
REMARK  143  A    between atoms: _354  and  _355
REMARK  144  A    between atoms: _357  and  _359
REMARK  145  A    between atoms: _359  and  _360
REMARK  146  A    between atoms: _359  and  _362
REMARK  147  A    between atoms: _362  and  _363
REMARK  148  A    between atoms: _369  and  _371
REMARK  149  A    between atoms: _371  and  _372
REMARK  150  A    between atoms: _371  and  _374
REMARK  151  A    between atoms: _374  and  _375
REMARK  152  A    between atoms: _375  and  _376
REMARK  153  A    between atoms: _379  and  _381
REMARK  154  A    between atoms: _381  and  _382
REMARK  155  A    between atoms: _381  and  _384
REMARK  156  A    between atoms: _384  and  _385
REMARK  157  A    between atoms: _385  and  _386
REMARK  158  A    between atoms: _391  and  _393
REMARK  159  A    between atoms: _393  and  _394
REMARK  160  A    between atoms: _397  and  _399
REMARK  161  A    between atoms: _399  and  _400
REMARK  162  A    between atoms: _399  and  _402
REMARK  163  A    between atoms: _402  and  _403
REMARK  164  A    between atoms: _406  and  _408
REMARK  165  A    between atoms: _408  and  _409
REMARK  166  A    between atoms: _411  and  _413
REMARK  167  A    between atoms: _413  and  _414
REMARK  168  A    between atoms: _413  and  _416
REMARK  169  A    between atoms: _419  and  _421
REMARK  170  A    between atoms: _421  and  _422
REMARK  171  A    between atoms: _421  and  _424
REMARK  172  A    between atoms: _424  and  _425
REMARK  173  A    between atoms: _425  and  _426
REMARK  174  A    between atoms: _431  and  _433
REMARK  175  A    between atoms: _433  and  _434
REMARK  176  A    between atoms: _433  and  _436
REMARK  177  A    between atoms: _436  and  _437
REMARK  178  A    between atoms: _440  and  _442
REMARK  179  A    between atoms: _442  and  _443
REMARK  180  A    between atoms: _442  and  _445
REMARK  181  A    between atoms: _448  and  _450
REMARK  182  A    between atoms: _450  and  _451
REMARK  183  A    between atoms: _450  and  _453
REMARK  184  A    between atoms: _453  and  _454
REMARK  185  A    between atoms: _457  and  _459
REMARK  186  A    between atoms: _459  and  _460
REMARK  187  A    between atoms: _459  and  _462
REMARK  188  A    between atoms: _462  and  _463
REMARK  189  A    between atoms: _466  and  _468
REMARK  190  A    between atoms: _468  and  _469
REMARK  191  A    between atoms: _471  and  _473
REMARK  192  A    between atoms: _473  and  _474
REMARK  193  A    between atoms: _477  and  _479
REMARK  194  A    between atoms: _479  and  _480
REMARK  195  A    between atoms: _479  and  _482
REMARK  196  A    between atoms: _482  and  _483
REMARK  197  A    between atoms: _485  and  _487
REMARK  198  A    between atoms: _487  and  _488
REMARK  199  A    between atoms: _487  and  _490
REMARK  200  A    between atoms: _490  and  _491
REMARK  201  A    between atoms: _496  and  _497
REMARK  202  A    between atoms: _499  and  _501
REMARK  203  A    between atoms: _501  and  _502
REMARK  204  A    between atoms: _501  and  _504
REMARK  205  A    between atoms: _504  and  _505
REMARK  206  A    between atoms: _508  and  _510
REMARK  207  A    between atoms: _510  and  _511
REMARK  208  A    between atoms: _510  and  _513
REMARK  209  A    between atoms: _513  and  _514
REMARK  210  A    between atoms: _516  and  _518
REMARK  211  A    between atoms: _518  and  _519
REMARK  212  A    between atoms: _521  and  _523
REMARK  213  A    between atoms: _523  and  _524
REMARK  214  A    between atoms: _523  and  _526
REMARK  215  A    between atoms: _526  and  _527
REMARK  216  A    between atoms: _533  and  _535
REMARK  217  A    between atoms: _535  and  _536
REMARK  218  A    between atoms: _535  and  _538
REMARK  219  A    between atoms: _538  and  _539
REMARK  220  A    between atoms: _542  and  _544
REMARK  221  A    between atoms: _544  and  _545
REMARK  222  A    between atoms: _548  and  _550
REMARK  223  A    between atoms: _550  and  _551
REMARK  224  A    between atoms: _550  and  _553
REMARK  225  A    between atoms: _553  and  _554
REMARK  226  A    between atoms: _557  and  _559
REMARK  227  A    between atoms: _559  and  _560
REMARK  228  A    between atoms: _559  and  _562
REMARK  229  A    between atoms: _562  and  _563
REMARK  230  A    between atoms: _568  and  _570
REMARK  231  A    between atoms: _570  and  _571
REMARK  232  A    between atoms: _574  and  _576
REMARK  233  A    between atoms: _576  and  _577
REMARK  234  A    between atoms: _576  and  _579
REMARK  235  A    between atoms: _579  and  _580
REMARK  236  A    between atoms: _580  and  _581
REMARK  237  A    between atoms: _583  and  _585
REMARK  238  A    between atoms: _585  and  _586
REMARK  239  A    between atoms: _585  and  _588
REMARK  240  A    between atoms: _588  and  _589
REMARK  241  A    between atoms: _592  and  _594
REMARK  242  A    between atoms: _594  and  _595
REMARK  243  A    between atoms: _594  and  _597
REMARK  244  A    between atoms: _597  and  _598
REMARK  245  A    between atoms: _602  and  _603
REMARK  246  A    between atoms: _608  and  _610
REMARK  247  A    between atoms: _610  and  _611
REMARK  248  A    between atoms: _610  and  _613
REMARK  249  A    between atoms: _613  and  _614
REMARK  250  A    between atoms: _617  and  _619
REMARK  251  A    between atoms: _619  and  _620
REMARK  252  A    between atoms: _622  and  _624
REMARK  253  A    between atoms: _624  and  _625
REMARK  254  A    between atoms: _624  and  _627
REMARK  255  A    between atoms: _627  and  _628
REMARK  256  A    between atoms: _631  and  _633
REMARK  257  A    between atoms: _633  and  _634
REMARK  258  A    between atoms: _633  and  _636
REMARK  259  A    between atoms: _636  and  _637
REMARK  260  A    between atoms: _647  and  _649
REMARK  261  A    between atoms: _649  and  _650
REMARK  262  A    between atoms: _653  and  _655
REMARK  263  A    between atoms: _655  and  _656
REMARK  264  A    between atoms: _655  and  _658
REMARK  265  A    between atoms: _658  and  _659
REMARK  266  A    between atoms: _662  and  _664
REMARK  267  A    between atoms: _664  and  _665
REMARK  268  A    between atoms: _667  and  _669
REMARK  269  A    between atoms: _669  and  _670
REMARK  270  A    between atoms: _673  and  _675
REMARK  271  A    between atoms: _675  and  _676
REMARK  272  A    between atoms: _675  and  _678
REMARK  273  A    between atoms: _678  and  _679
REMARK  274  A    between atoms: _682  and  _684
REMARK  275  A    between atoms: _684  and  _685
REMARK  276  A    between atoms: _684  and  _687
REMARK  277  A    between atoms: _687  and  _688
REMARK                            x       y       z     vdW  Elec       q    Type
REMARK                         _______ _______ _______ _____ _____    ______ ____
ROOT
ATOM      1  CA  THR A   1      -3.994 -39.554 -39.880  0.00  0.00    +0.172 C 
ENDROOT
BRANCH   1   2
ATOM      2  C   THR A   1      -3.193 -39.398 -38.605  0.00  0.00    +0.241 C 
ATOM      3  N   GLY A   2      -3.779 -39.883 -37.516  0.00  0.00    -0.296 N 
ATOM      4  H   GLY A   2      -4.716 -40.325 -37.608  0.00  0.00    +0.150 HD
ATOM      5  O   THR A   1      -2.057 -38.896 -38.626  0.00  0.00    -0.274 OA
BRANCH   3   6
ATOM      6  CA  GLY A   2      -3.164 -39.820 -36.205  0.00  0.00    +0.163 C 
BRANCH   6   7
ATOM      7  C   GLY A   2      -2.654 -41.183 -35.761  0.00  0.00    +0.229 C 
ATOM      8  O   GLY A   2      -2.770 -42.167 -36.504  0.00  0.00    -0.286 OA
ENDBRANCH   6   7
ENDBRANCH   3   6
ENDBRANCH   1   2
BRANCH   1   9
ATOM      9  N   THR A   1      -4.622 -40.880 -39.983  0.00  0.00    -0.236 NA
ATOM     10  H   THR A   1      -5.651 -40.979 -39.868  0.00  0.00    +0.142 HD
ENDBRANCH   1   9
BRANCH   1  11
ATOM     11  CB  THR A   1      -4.998 -38.395 -40.080  0.00  0.00    +0.135 C 
ATOM     12  CG2 THR A   1      -4.259 -37.034 -40.080  0.00  0.00    +0.034 C 
BRANCH  11  13
ATOM     13  OG1 THR A   1      -5.649 -38.572 -41.336  0.00  0.00    -0.383 OA
ATOM     14  HG1 THR A   1      -6.296 -37.836 -41.478  0.00  0.00    +0.210 HD
ENDBRANCH  11  13
ENDBRANCH   1  11
TORSDOF 6
REMARK  Name = ../refined-set-2016/3own/3own_pocket.pdb
REMARK  277 active torsions:
REMARK  status: ('A' for Active; 'I' for Inactive)
REMARK    1  A    between atoms: _1  and  _3
REMARK    2  A    between atoms: _3  and  _4
REMARK    3  A    between atoms: _3  and  _6
REMARK    4  A    between atoms: _6  and  _7
REMARK    5  A    between atoms: _12  and  _13
REMARK    6  A    between atoms: _15  and  _17
REMARK    7  A    between atoms: _17  and  _18
REMARK    8  A    between atoms: _17  and  _20
REMARK    9  A    between atoms: _20  and  _21
REMARK   10  A    between atoms: _24  and  _26
REMARK   11  A    between atoms: _26  and  _27
REMARK   12  A    between atoms: _26  and  _29
REMARK   13  A    between atoms: _29  and  _30
REMARK   14  A    between atoms: _33  and  _35
REMARK   15  A    between atoms: _35  and  _36
REMARK   16  A    between atoms: _35  and  _38
REMARK   17  A    between atoms: _38  and  _39
REMARK   18  A    between atoms: _39  and  _40
REMARK   19  A    between atoms: _45  and  _47
REMARK   20  A    between atoms: _47  and  _48
REMARK   21  A    between atoms: _47  and  _50
REMARK   22  A    between atoms: _50  and  _51
REMARK   23  A    between atoms: _56  and  _57
REMARK   24  A    between atoms: _59  and  _61
REMARK   25  A    between atoms: _61  and  _62
REMARK   26  A    between atoms: _61  and  _64
REMARK   27  A    between atoms: _67  and  _69
REMARK   28  A    between atoms: _69  and  _70
REMARK   29  A    between atoms: _69  and  _72
REMARK   30  A    between atoms: _72  and  _73
REMARK   31  A    between atoms: _79  and  _81
REMARK   32  A    between atoms: _81  and  _82
REMARK   33  A    between atoms: _81  and  _84
REMARK   34  A    between atoms: _84  and  _85
REMARK   35  A    between atoms: _88  and  _90
REMARK   36  A    between atoms: _90  and  _91
REMARK   37  A    between atoms: _90  and  _93
REMARK   38  A    between atoms: _93  and  _94
REMARK   39  A    between atoms: _97  and  _99
REMARK   40  A    between atoms: _99  and  _100
REMARK   41  A    between atoms: _102  and  _104
REMARK   42  A    between atoms: _104  and  _105
REMARK   43  A    between atoms: _104  and  _107
REMARK   44  A    between atoms: _107  and  _108
REMARK   45  A    between atoms: _110  and  _112
REMARK   46  A    between atoms: _112  and  _113
REMARK   47  A    between atoms: _112  and  _115
REMARK   48  A    between atoms: _115  and  _116
REMARK   49  A    between atoms: _118  and  _120
REMARK   50  A    between atoms: _120  and  _121
REMARK   51  A    between atoms: _120  and  _123
REMARK   52  A    between atoms: _123  and  _124
REMARK   53  A    between atoms: _129  and  _131
REMARK   54  A    between atoms: _131  and  _132
REMARK   55  A    between atoms: _131  and  _134
REMARK   56  A    between atoms: _134  and  _135
REMARK   57  A    between atoms: _145  and  _147
REMARK   58  A    between atoms: _147  and  _148
REMARK   59  A    between atoms: _147  and  _150
REMARK   60  A    between atoms: _150  and  _151
REMARK   61  A    between atoms: _154  and  _156
REMARK   62  A    between atoms: _156  and  _157
REMARK   63  A    between atoms: _156  and  _159
REMARK   64  A    between atoms: _159  and  _160
REMARK   65  A    between atoms: _163  and  _165
REMARK   66  A    between atoms: _165  and  _166
REMARK   67  A    between atoms: _165  and  _168
REMARK   68  A    between atoms: _168  and  _169
REMARK   69  A    between atoms: _169  and  _170
REMARK   70  A    between atoms: _170  and  _171
REMARK   71  A    between atoms: _180  and  _182
REMARK   72  A    between atoms: _182  and  _183
REMARK   73  A    between atoms: _182  and  _185
REMARK   74  A    between atoms: _185  and  _186
REMARK   75  A    between atoms: _191  and  _192
REMARK   76  A    between atoms: _194  and  _196
REMARK   77  A    between atoms: _196  and  _197
REMARK   78  A    between atoms: _196  and  _199
REMARK   79  A    between atoms: _199  and  _200
REMARK   80  A    between atoms: _202  and  _204
REMARK   81  A    between atoms: _204  and  _205
REMARK   82  A    between atoms: _204  and  _207
REMARK   83  A    between atoms: _207  and  _208
REMARK   84  A    between atoms: _211  and  _213
REMARK   85  A    between atoms: _213  and  _214
REMARK   86  A    between atoms: _216  and  _218
REMARK   87  A    between atoms: _218  and  _219
REMARK   88  A    between atoms: _218  and  _221
REMARK   89  A    between atoms: _224  and  _226
REMARK   90  A    between atoms: _226  and  _227
REMARK   91  A    between atoms: _226  and  _229
REMARK   92  A    between atoms: _229  and  _230
REMARK   93  A    between atoms: _230  and  _231
REMARK   94  A    between atoms: _233  and  _235
REMARK   95  A    between atoms: _235  and  _236
REMARK   96  A    between atoms: _239  and  _241
REMARK   97  A    between atoms: _241  and  _242
REMARK   98  A    between atoms: _241  and  _244
REMARK   99  A    between atoms: _244  and  _245
REMARK  100  A    between atoms: _249  and  _250
REMARK  101  A    between atoms: _255  and  _257
REMARK  102  A    between atoms: _257  and  _258
REMARK  103  A    between atoms: _257  and  _260
REMARK  104  A    between atoms: _260  and  _261
REMARK  105  A    between atoms: _267  and  _269
REMARK  106  A    between atoms: _269  and  _270
REMARK  107  A    between atoms: _269  and  _272
REMARK  108  A    between atoms: _272  and  _273
REMARK  109  A    between atoms: _273  and  _274
REMARK  110  A    between atoms: _276  and  _278
REMARK  111  A    between atoms: _278  and  _279
REMARK  112  A    between atoms: _278  and  _281
REMARK  113  A    between atoms: _281  and  _282
REMARK  114  A    between atoms: _285  and  _287
REMARK  115  A    between atoms: _287  and  _288
REMARK  116  A    between atoms: _291  and  _293
REMARK  117  A    between atoms: _293  and  _294
REMARK  118  A    between atoms: _293  and  _296
REMARK  119  A    between atoms: _296  and  _297
REMARK  120  A    between atoms: _297  and  _298
REMARK  121  A    between atoms: _301  and  _303
REMARK  122  A    between atoms: _303  and  _304
REMARK  123  A    between atoms: _303  and  _306
REMARK  124  A    between atoms: _306  and  _307
REMARK  125  A    between atoms: _313  and  _315
REMARK  126  A    between atoms: _315  and  _316
REMARK  127  A    between atoms: _315  and  _318
REMARK  128  A    between atoms: _318  and  _319
REMARK  129  A    between atoms: _322  and  _324
REMARK  130  A    between atoms: _324  and  _325
REMARK  131  A    between atoms: _327  and  _329
REMARK  132  A    between atoms: _329  and  _330
REMARK  133  A    between atoms: _329  and  _332
REMARK  134  A    between atoms: _335  and  _337
REMARK  135  A    between atoms: _337  and  _338
REMARK  136  A    between atoms: _337  and  _340
REMARK  137  A    between atoms: _343  and  _345
REMARK  138  A    between atoms: _345  and  _346
REMARK  139  A    between atoms: _345  and  _348
REMARK  140  A    between atoms: _348  and  _349
REMARK  141  A    between atoms: _349  and  _350
REMARK  142  A    between atoms: _352  and  _354
REMARK  143  A    between atoms: _354  and  _355
REMARK  144  A    between atoms: _357  and  _359
REMARK  145  A    between atoms: _359  and  _360
REMARK  146  A    between atoms: _359  and  _362
REMARK  147  A    between atoms: _362  and  _363
REMARK  148  A    between atoms: _369  and  _371
REMARK  149  A    between atoms: _371  and  _372
REMARK  150  A    between atoms: _371  and  _374
REMARK  151  A    between atoms: _374  and  _375
REMARK  152  A    between atoms: _375  and  _376
REMARK  153  A    between atoms: _379  and  _381
REMARK  154  A    between atoms: _381  and  _382
REMARK  155  A    between atoms: _381  and  _384
REMARK  156  A    between atoms: _384  and  _385
REMARK  157  A    between atoms: _385  and  _386
REMARK  158  A    between atoms: _391  and  _393
REMARK  159  A    between atoms: _393  and  _394
REMARK  160  A    between atoms: _397  and  _399
REMARK  161  A    between atoms: _399  and  _400
REMARK  162  A    between atoms: _399  and  _402
REMARK  163  A    between atoms: _402  and  _403
REMARK  164  A    between atoms: _406  and  _408
REMARK  165  A    between atoms: _408  and  _409
REMARK  166  A    between atoms: _411  and  _413
REMARK  167  A    between atoms: _413  and  _414
REMARK  168  A    between atoms: _413  and  _416
REMARK  169  A    between atoms: _419  and  _421
REMARK  170  A    between atoms: _421  and  _422
REMARK  171  A    between atoms: _421  and  _424
REMARK  172  A    between atoms: _424  and  _425
REMARK  173  A    between atoms: _425  and  _426
REMARK  174  A    between atoms: _431  and  _433
REMARK  175  A    between atoms: _433  and  _434
REMARK  176  A    between atoms: _433  and  _436
REMARK  177  A    between atoms: _436  and  _437
REMARK  178  A    between atoms: _440  and  _442
REMARK  179  A    between atoms: _442  and  _443
REMARK  180  A    between atoms: _442  and  _445
REMARK  181  A    between atoms: _448  and  _450
REMARK  182  A    between atoms: _450  and  _451
REMARK  183  A    between atoms: _450  and  _453
REMARK  184  A    between atoms: _453  and  _454
REMARK  185  A    between atoms: _457  and  _459
REMARK  186  A    between atoms: _459  and  _460
REMARK  187  A    between atoms: _459  and  _462
REMARK  188  A    between atoms: _462  and  _463
REMARK  189  A    between atoms: _466  and  _468
REMARK  190  A    between atoms: _468  and  _469
REMARK  191  A    between atoms: _471  and  _473
REMARK  192  A    between atoms: _473  and  _474
REMARK  193  A    between atoms: _477  and  _479
REMARK  194  A    between atoms: _479  and  _480
REMARK  195  A    between atoms: _479  and  _482
REMARK  196  A    between atoms: _482  and  _483
REMARK  197  A    between atoms: _485  and  _487
REMARK  198  A    between atoms: _487  and  _488
REMARK  199  A    between atoms: _487  and  _490
REMARK  200  A    between atoms: _490  and  _491
REMARK  201  A    between atoms: _496  and  _497
REMARK  202  A    between atoms: _499  and  _501
REMARK  203  A    between atoms: _501  and  _502
REMARK  204  A    between atoms: _501  and  _504
REMARK  205  A    between atoms: _504  and  _505
REMARK  206  A    between atoms: _508  and  _510
REMARK  207  A    between atoms: _510  and  _511
REMARK  208  A    between atoms: _510  and  _513
REMARK  209  A    between atoms: _513  and  _514
REMARK  210  A    between atoms: _516  and  _518
REMARK  211  A    between atoms: _518  and  _519
REMARK  212  A    between atoms: _521  and  _523
REMARK  213  A    between atoms: _523  and  _524
REMARK  214  A    between atoms: _523  and  _526
REMARK  215  A    between atoms: _526  and  _527
REMARK  216  A    between atoms: _533  and  _535
REMARK  217  A    between atoms: _535  and  _536
REMARK  218  A    between atoms: _535  and  _538
REMARK  219  A    between atoms: _538  and  _539
REMARK  220  A    between atoms: _542  and  _544
REMARK  221  A    between atoms: _544  and  _545
REMARK  222  A    between atoms: _548  and  _550
REMARK  223  A    between atoms: _550  and  _551
REMARK  224  A    between atoms: _550  and  _553
REMARK  225  A    between atoms: _553  and  _554
REMARK  226  A    between atoms: _557  and  _559
REMARK  227  A    between atoms: _559  and  _560
REMARK  228  A    between atoms: _559  and  _562
REMARK  229  A    between atoms: _562  and  _563
REMARK  230  A    between atoms: _568  and  _570
REMARK  231  A    between atoms: _570  and  _571
REMARK  232  A    between atoms: _574  and  _576
REMARK  233  A    between atoms: _576  and  _577
REMARK  234  A    between atoms: _576  and  _579
REMARK  235  A    between atoms: _579  and  _580
REMARK  236  A    between atoms: _580  and  _581
REMARK  237  A    between atoms: _583  and  _585
REMARK  238  A    between atoms: _585  and  _586
REMARK  239  A    between atoms: _585  and  _588
REMARK  240  A    between atoms: _588  and  _589
REMARK  241  A    between atoms: _592  and  _594
REMARK  242  A    between atoms: _594  and  _595
REMARK  243  A    between atoms: _594  and  _597
REMARK  244  A    between atoms: _597  and  _598
REMARK  245  A    between atoms: _602  and  _603
REMARK  246  A    between atoms: _608  and  _610
REMARK  247  A    between atoms: _610  and  _611
REMARK  248  A    between atoms: _610  and  _613
REMARK  249  A    between atoms: _613  and  _614
REMARK  250  A    between atoms: _617  and  _619
REMARK  251  A    between atoms: _619  and  _620
REMARK  252  A    between atoms: _622  and  _624
REMARK  253  A    between atoms: _624  and  _625
REMARK  254  A    between atoms: _624  and  _627
REMARK  255  A    between atoms: _627  and  _628
REMARK  256  A    between atoms: _631  and  _633
REMARK  257  A    between atoms: _633  and  _634
REMARK  258  A    between atoms: _633  and  _636
REMARK  259  A    between atoms: _636  and  _637
REMARK  260  A    between atoms: _647  and  _649
REMARK  261  A    between atoms: _649  and  _650
REMARK  262  A    between atoms: _653  and  _655
REMARK  263  A    between atoms: _655  and  _656
REMARK  264  A    between atoms: _655  and  _658
REMARK  265  A    between atoms: _658  and  _659
REMARK  266  A    between atoms: _662  and  _664
REMARK  267  A    between atoms: _664  and  _665
REMARK  268  A    between atoms: _667  and  _669
REMARK  269  A    between atoms: _669  and  _670
REMARK  270  A    between atoms: _673  and  _675
REMARK  271  A    between atoms: _675  and  _676
REMARK  272  A    between atoms: _675  and  _678
REMARK  273  A    between atoms: _678  and  _679
REMARK  274  A    between atoms: _682  and  _684
REMARK  275  A    between atoms: _684  and  _685
REMARK  276  A    between atoms: _684  and  _687
REMARK  277  A    between atoms: _687  and  _688
REMARK                            x       y       z     vdW  Elec       q    Type
REMARK                         _______ _______ _______ _____ _____    ______ ____
ROOT
ATOM      1  CA  LEU A   4       0.642 -27.063 -35.140  0.00  0.00    +0.149 C 
ENDROOT
BRANCH   1   4
ATOM      2  C   ALA A   3      -0.488 -29.048 -34.333  0.00  0.00    +0.241 C 
ATOM      3  O   ALA A   3      -0.434 -28.645 -33.166  0.00  0.00    -0.273 OA
ATOM      4  N   LEU A   4       0.031 -28.379 -35.362  0.00  0.00    -0.297 N 
ATOM      5  H   LEU A   4       0.003 -28.787 -36.318  0.00  0.00    +0.150 HD
BRANCH   2   6
ATOM      6  CA  ALA A   3      -1.125 -30.406 -34.636  0.00  0.00    +0.149 C 
ATOM      7  CB  ALA A   3      -2.651 -30.304 -34.596  0.00  0.00    +0.031 C 
BRANCH   6   9
ATOM      8  C   TRP A   2      -0.039 -32.505 -34.043  0.00  0.00    +0.241 C 
ATOM      9  N   ALA A   3      -0.606 -31.373 -33.639  0.00  0.00    -0.297 N 
ATOM     10  H   ALA A   3      -0.686 -31.165 -32.623  0.00  0.00    +0.150 HD
ATOM     11  O   TRP A   2      -0.027 -32.834 -35.235  0.00  0.00    -0.273 OA
BRANCH   8  12
ATOM     12  CA  TRP A   2       0.626 -33.391 -32.976  0.00  0.00    +0.153 C 
BRANCH  12  15
ATOM     13  C   THR A   1      -0.410 -35.545 -33.552  0.00  0.00    +0.241 C 
ATOM     14  O   THR A   1      -1.402 -35.370 -32.823  0.00  0.00    -0.274 OA
ATOM     15  N   TRP A   2       0.669 -34.757 -33.517  0.00  0.00    -0.297 N 
ATOM     16  H   TRP A   2       1.570 -35.123 -33.885  0.00  0.00    +0.150 HD
BRANCH  13  17
ATOM     17  CA  THR A   1      -0.333 -36.745 -34.494  0.00  0.00    +0.172 C 
BRANCH  17  18
ATOM     18  CB  THR A   1      -0.822 -36.362 -35.961  0.00  0.00    +0.135 C 
ATOM     19  CG2 THR A   1      -2.249 -35.725 -35.993  0.00  0.00    +0.034 C 
BRANCH  18  20
ATOM     20  OG1 THR A   1       0.098 -35.466 -36.621  0.00  0.00    -0.383 OA
ATOM     21  HG1 THR A   1       0.180 -34.632 -36.094  0.00  0.00    +0.210 HD
ENDBRANCH  18  20
ENDBRANCH  17  18
BRANCH  17  22
ATOM     22  N   THR A   1      -1.103 -37.841 -33.916  0.00  0.00    -0.236 NA
ATOM     23  H   THR A   1      -1.846 -37.632 -33.219  0.00  0.00    +0.142 HD
ENDBRANCH  17  22
ENDBRANCH  13  17
ENDBRANCH  12  15
BRANCH  12  24
ATOM     24  CB  TRP A   2       2.053 -32.839 -32.794  0.00  0.00    +0.057 C 
BRANCH  24  25
ATOM     25  CG  TRP A   2       2.839 -33.553 -31.733  0.00  0.00    -0.002 A 
ATOM     26  CD2 TRP A   2       3.139 -33.055 -30.425  0.00  0.00    +0.013 A 
ATOM     27  CE3 TRP A   2       2.852 -31.852 -29.755  0.00  0.00    +0.001 A 
ATOM     28  CZ3 TRP A   2       3.307 -31.691 -28.456  0.00  0.00    +0.000 A 
ATOM     29  CH2 TRP A   2       4.064 -32.703 -27.819  0.00  0.00    +0.001 A 
ATOM     30  CZ2 TRP A   2       4.367 -33.883 -28.449  0.00  0.00    +0.017 A 
ATOM     31  CE2 TRP A   2       3.901 -34.051 -29.759  0.00  0.00    +0.056 A 
ATOM     32  NE1 TRP A   2       4.058 -35.102 -30.623  0.00  0.00    -0.352 N 
ATOM     33  HE1 TRP A   2       4.574 -35.981 -30.415  0.00  0.00    +0.166 HD
ATOM     34  CD1 TRP A   2       3.422 -34.810 -31.816  0.00  0.00    +0.068 A 
ENDBRANCH  24  25
ENDBRANCH  12  24
ENDBRANCH   8  12
ENDBRANCH   6   9
ENDBRANCH   2   6
ENDBRANCH   1   4
BRANCH   1  35
ATOM     35  C   LEU A   4      -0.301 -25.994 -35.694  0.00  0.00    +0.241 C 
ATOM     36  N   GLY A   5      -1.007 -25.335 -34.779  0.00  0.00    -0.295 N 
ATOM     37  H   GLY A   5      -0.840 -25.551 -33.776  0.00  0.00    +0.150 HD
ATOM     38  O   LEU A   4      -0.415 -25.836 -36.907  0.00  0.00    -0.273 OA
BRANCH  36  39
ATOM     39  CA  GLY A   5      -1.985 -24.344 -35.107  0.00  0.00    +0.176 C 
BRANCH  39  40
ATOM     40  C   GLY A   5      -1.464 -22.941 -35.004  0.00  0.00    +0.243 C 
ATOM     41  N   ALA A   6      -2.362 -21.998 -34.761  0.00  0.00    -0.297 N 
ATOM     42  H   ALA A   6      -3.346 -22.272 -34.567  0.00  0.00    +0.150 HD
ATOM     43  O   GLY A   5      -0.268 -22.708 -35.115  0.00  0.00    -0.273 OA
BRANCH  41  44
ATOM     44  CA  ALA A   6      -1.999 -20.567 -34.759  0.00  0.00    +0.149 C 
ATOM     45  CB  ALA A   6      -3.214 -19.685 -34.527  0.00  0.00    +0.031 C 
BRANCH  44  46
ATOM     46  C   ALA A   6      -0.874 -20.141 -33.832  0.00  0.00    +0.241 C 
ATOM     47  N   THR A   7      -0.786 -20.749 -32.649  0.00  0.00    -0.295 N 
ATOM     48  H   THR A   7      -1.543 -21.403 -32.366  0.00  0.00    +0.150 HD
ATOM     49  O   ALA A   6      -0.142 -19.218 -34.172  0.00  0.00    -0.273 OA
BRANCH  47  50
ATOM     50  CA  THR A   7       0.357 -20.528 -31.715  0.00  0.00    +0.176 C 
BRANCH  50  51
ATOM     51  C   THR A   7       1.723 -20.660 -32.418  0.00  0.00    +0.243 C 
ATOM     52  O   THR A   7       2.606 -19.820 -32.222  0.00  0.00    -0.273 OA
ATOM     53  N   PHE A   8       1.877 -21.723 -33.207  0.00  0.00    -0.298 N 
ATOM     54  H   PHE A   8       1.091 -22.401 -33.270  0.00  0.00    +0.150 HD
BRANCH  53  55
ATOM     55  CA  PHE A   8       3.074 -21.995 -33.985  0.00  0.00    +0.141 C 
BRANCH  55  56
ATOM     56  C   PHE A   8       3.234 -21.057 -35.207  0.00  0.00    +0.227 C 
ATOM     57  O   PHE A   8       4.298 -20.469 -35.413  0.00  0.00    -0.286 OA
ENDBRANCH  55  56
BRANCH  55  58
ATOM     58  CB  PHE A   8       3.090 -23.473 -34.433  0.00  0.00    +0.054 C 
BRANCH  58  59
ATOM     59  CG  PHE A   8       4.422 -23.919 -34.982  0.00  0.00    -0.020 A 
ATOM     60  CD2 PHE A   8       5.417 -24.397 -34.131  0.00  0.00    -0.004 A 
ATOM     61  CE2 PHE A   8       6.672 -24.810 -34.640  0.00  0.00    -0.000 A 
ATOM     62  CZ  PHE A   8       6.928 -24.693 -36.024  0.00  0.00    -0.000 A 
ATOM     63  CE1 PHE A   8       5.928 -24.223 -36.878  0.00  0.00    -0.000 A 
ATOM     64  CD1 PHE A   8       4.672 -23.852 -36.348  0.00  0.00    -0.004 A 
ENDBRANCH  58  59
ENDBRANCH  55  58
ENDBRANCH  53  55
ENDBRANCH  50  51
BRANCH  50  65
ATOM     65  CB  THR A   7       0.286 -21.512 -30.526  0.00  0.00    +0.137 C 
ATOM     66  CG2 THR A   7       1.315 -21.194 -29.413  0.00  0.00    +0.034 C 
BRANCH  65  67
ATOM     67  OG1 THR A   7      -1.028 -21.439 -29.974  0.00  0.00    -0.382 OA
ATOM     68  HG1 THR A   7      -1.690 -21.689 -30.666  0.00  0.00    +0.210 HD
ENDBRANCH  65  67
ENDBRANCH  50  65
ENDBRANCH  47  50
ENDBRANCH  44  46
ENDBRANCH  41  44
ENDBRANCH  39  40
ENDBRANCH  36  39
ENDBRANCH   1  35
BRANCH   1  69
ATOM     69  CB  LEU A   4       2.038 -26.969 -35.787  0.00  0.00    +0.029 C 
BRANCH  69  70
ATOM     70  CG  LEU A   4       3.050 -28.027 -35.265  0.00  0.00    +0.002 C 
ATOM     71  CD2 LEU A   4       3.466 -27.795 -33.810  0.00  0.00    +0.000 C 
ATOM     72  CD1 LEU A   4       4.269 -28.083 -36.223  0.00  0.00    +0.000 C 
ENDBRANCH  69  70
ENDBRANCH   1  69
TORSDOF 26
REMARK  Name = ../refined-set-2016/3own/3own_pocket.pdb
REMARK  277 active torsions:
REMARK  status: ('A' for Active; 'I' for Inactive)
REMARK    1  A    between atoms: _1  and  _3
REMARK    2  A    between atoms: _3  and  _4
REMARK    3  A    between atoms: _3  and  _6
REMARK    4  A    between atoms: _6  and  _7
REMARK    5  A    between atoms: _12  and  _13
REMARK    6  A    between atoms: _15  and  _17
REMARK    7  A    between atoms: _17  and  _18
REMARK    8  A    between atoms: _17  and  _20
REMARK    9  A    between atoms: _20  and  _21
REMARK   10  A    between atoms: _24  and  _26
REMARK   11  A    between atoms: _26  and  _27
REMARK   12  A    between atoms: _26  and  _29
REMARK   13  A    between atoms: _29  and  _30
REMARK   14  A    between atoms: _33  and  _35
REMARK   15  A    between atoms: _35  and  _36
REMARK   16  A    between atoms: _35  and  _38
REMARK   17  A    between atoms: _38  and  _39
REMARK   18  A    between atoms: _39  and  _40
REMARK   19  A    between atoms: _45  and  _47
REMARK   20  A    between atoms: _47  and  _48
REMARK   21  A    between atoms: _47  and  _50
REMARK   22  A    between atoms: _50  and  _51
REMARK   23  A    between atoms: _56  and  _57
REMARK   24  A    between atoms: _59  and  _61
REMARK   25  A    between atoms: _61  and  _62
REMARK   26  A    between atoms: _61  and  _64
REMARK   27  A    between atoms: _67  and  _69
REMARK   28  A    between atoms: _69  and  _70
REMARK   29  A    between atoms: _69  and  _72
REMARK   30  A    between atoms: _72  and  _73
REMARK   31  A    between atoms: _79  and  _81
REMARK   32  A    between atoms: _81  and  _82
REMARK   33  A    between atoms: _81  and  _84
REMARK   34  A    between atoms: _84  and  _85
REMARK   35  A    between atoms: _88  and  _90
REMARK   36  A    between atoms: _90  and  _91
REMARK   37  A    between atoms: _90  and  _93
REMARK   38  A    between atoms: _93  and  _94
REMARK   39  A    between atoms: _97  and  _99
REMARK   40  A    between atoms: _99  and  _100
REMARK   41  A    between atoms: _102  and  _104
REMARK   42  A    between atoms: _104  and  _105
REMARK   43  A    between atoms: _104  and  _107
REMARK   44  A    between atoms: _107  and  _108
REMARK   45  A    between atoms: _110  and  _112
REMARK   46  A    between atoms: _112  and  _113
REMARK   47  A    between atoms: _112  and  _115
REMARK   48  A    between atoms: _115  and  _116
REMARK   49  A    between atoms: _118  and  _120
REMARK   50  A    between atoms: _120  and  _121
REMARK   51  A    between atoms: _120  and  _123
REMARK   52  A    between atoms: _123  and  _124
REMARK   53  A    between atoms: _129  and  _131
REMARK   54  A    between atoms: _131  and  _132
REMARK   55  A    between atoms: _131  and  _134
REMARK   56  A    between atoms: _134  and  _135
REMARK   57  A    between atoms: _145  and  _147
REMARK   58  A    between atoms: _147  and  _148
REMARK   59  A    between atoms: _147  and  _150
REMARK   60  A    between atoms: _150  and  _151
REMARK   61  A    between atoms: _154  and  _156
REMARK   62  A    between atoms: _156  and  _157
REMARK   63  A    between atoms: _156  and  _159
REMARK   64  A    between atoms: _159  and  _160
REMARK   65  A    between atoms: _163  and  _165
REMARK   66  A    between atoms: _165  and  _166
REMARK   67  A    between atoms: _165  and  _168
REMARK   68  A    between atoms: _168  and  _169
REMARK   69  A    between atoms: _169  and  _170
REMARK   70  A    between atoms: _170  and  _171
REMARK   71  A    between atoms: _180  and  _182
REMARK   72  A    between atoms: _182  and  _183
REMARK   73  A    between atoms: _182  and  _185
REMARK   74  A    between atoms: _185  and  _186
REMARK   75  A    between atoms: _191  and  _192
REMARK   76  A    between atoms: _194  and  _196
REMARK   77  A    between atoms: _196  and  _197
REMARK   78  A    between atoms: _196  and  _199
REMARK   79  A    between atoms: _199  and  _200
REMARK   80  A    between atoms: _202  and  _204
REMARK   81  A    between atoms: _204  and  _205
REMARK   82  A    between atoms: _204  and  _207
REMARK   83  A    between atoms: _207  and  _208
REMARK   84  A    between atoms: _211  and  _213
REMARK   85  A    between atoms: _213  and  _214
REMARK   86  A    between atoms: _216  and  _218
REMARK   87  A    between atoms: _218  and  _219
REMARK   88  A    between atoms: _218  and  _221
REMARK   89  A    between atoms: _224  and  _226
REMARK   90  A    between atoms: _226  and  _227
REMARK   91  A    between atoms: _226  and  _229
REMARK   92  A    between atoms: _229  and  _230
REMARK   93  A    between atoms: _230  and  _231
REMARK   94  A    between atoms: _233  and  _235
REMARK   95  A    between atoms: _235  and  _236
REMARK   96  A    between atoms: _239  and  _241
REMARK   97  A    between atoms: _241  and  _242
REMARK   98  A    between atoms: _241  and  _244
REMARK   99  A    between atoms: _244  and  _245
REMARK  100  A    between atoms: _249  and  _250
REMARK  101  A    between atoms: _255  and  _257
REMARK  102  A    between atoms: _257  and  _258
REMARK  103  A    between atoms: _257  and  _260
REMARK  104  A    between atoms: _260  and  _261
REMARK  105  A    between atoms: _267  and  _269
REMARK  106  A    between atoms: _269  and  _270
REMARK  107  A    between atoms: _269  and  _272
REMARK  108  A    between atoms: _272  and  _273
REMARK  109  A    between atoms: _273  and  _274
REMARK  110  A    between atoms: _276  and  _278
REMARK  111  A    between atoms: _278  and  _279
REMARK  112  A    between atoms: _278  and  _281
REMARK  113  A    between atoms: _281  and  _282
REMARK  114  A    between atoms: _285  and  _287
REMARK  115  A    between atoms: _287  and  _288
REMARK  116  A    between atoms: _291  and  _293
REMARK  117  A    between atoms: _293  and  _294
REMARK  118  A    between atoms: _293  and  _296
REMARK  119  A    between atoms: _296  and  _297
REMARK  120  A    between atoms: _297  and  _298
REMARK  121  A    between atoms: _301  and  _303
REMARK  122  A    between atoms: _303  and  _304
REMARK  123  A    between atoms: _303  and  _306
REMARK  124  A    between atoms: _306  and  _307
REMARK  125  A    between atoms: _313  and  _315
REMARK  126  A    between atoms: _315  and  _316
REMARK  127  A    between atoms: _315  and  _318
REMARK  128  A    between atoms: _318  and  _319
REMARK  129  A    between atoms: _322  and  _324
REMARK  130  A    between atoms: _324  and  _325
REMARK  131  A    between atoms: _327  and  _329
REMARK  132  A    between atoms: _329  and  _330
REMARK  133  A    between atoms: _329  and  _332
REMARK  134  A    between atoms: _335  and  _337
REMARK  135  A    between atoms: _337  and  _338
REMARK  136  A    between atoms: _337  and  _340
REMARK  137  A    between atoms: _343  and  _345
REMARK  138  A    between atoms: _345  and  _346
REMARK  139  A    between atoms: _345  and  _348
REMARK  140  A    between atoms: _348  and  _349
REMARK  141  A    between atoms: _349  and  _350
REMARK  142  A    between atoms: _352  and  _354
REMARK  143  A    between atoms: _354  and  _355
REMARK  144  A    between atoms: _357  and  _359
REMARK  145  A    between atoms: _359  and  _360
REMARK  146  A    between atoms: _359  and  _362
REMARK  147  A    between atoms: _362  and  _363
REMARK  148  A    between atoms: _369  and  _371
REMARK  149  A    between atoms: _371  and  _372
REMARK  150  A    between atoms: _371  and  _374
REMARK  151  A    between atoms: _374  and  _375
REMARK  152  A    between atoms: _375  and  _376
REMARK  153  A    between atoms: _379  and  _381
REMARK  154  A    between atoms: _381  and  _382
REMARK  155  A    between atoms: _381  and  _384
REMARK  156  A    between atoms: _384  and  _385
REMARK  157  A    between atoms: _385  and  _386
REMARK  158  A    between atoms: _391  and  _393
REMARK  159  A    between atoms: _393  and  _394
REMARK  160  A    between atoms: _397  and  _399
REMARK  161  A    between atoms: _399  and  _400
REMARK  162  A    between atoms: _399  and  _402
REMARK  163  A    between atoms: _402  and  _403
REMARK  164  A    between atoms: _406  and  _408
REMARK  165  A    between atoms: _408  and  _409
REMARK  166  A    between atoms: _411  and  _413
REMARK  167  A    between atoms: _413  and  _414
REMARK  168  A    between atoms: _413  and  _416
REMARK  169  A    between atoms: _419  and  _421
REMARK  170  A    between atoms: _421  and  _422
REMARK  171  A    between atoms: _421  and  _424
REMARK  172  A    between atoms: _424  and  _425
REMARK  173  A    between atoms: _425  and  _426
REMARK  174  A    between atoms: _431  and  _433
REMARK  175  A    between atoms: _433  and  _434
REMARK  176  A    between atoms: _433  and  _436
REMARK  177  A    between atoms: _436  and  _437
REMARK  178  A    between atoms: _440  and  _442
REMARK  179  A    between atoms: _442  and  _443
REMARK  180  A    between atoms: _442  and  _445
REMARK  181  A    between atoms: _448  and  _450
REMARK  182  A    between atoms: _450  and  _451
REMARK  183  A    between atoms: _450  and  _453
REMARK  184  A    between atoms: _453  and  _454
REMARK  185  A    between atoms: _457  and  _459
REMARK  186  A    between atoms: _459  and  _460
REMARK  187  A    between atoms: _459  and  _462
REMARK  188  A    between atoms: _462  and  _463
REMARK  189  A    between atoms: _466  and  _468
REMARK  190  A    between atoms: _468  and  _469
REMARK  191  A    between atoms: _471  and  _473
REMARK  192  A    between atoms: _473  and  _474
REMARK  193  A    between atoms: _477  and  _479
REMARK  194  A    between atoms: _479  and  _480
REMARK  195  A    between atoms: _479  and  _482
REMARK  196  A    between atoms: _482  and  _483
REMARK  197  A    between atoms: _485  and  _487
REMARK  198  A    between atoms: _487  and  _488
REMARK  199  A    between atoms: _487  and  _490
REMARK  200  A    between atoms: _490  and  _491
REMARK  201  A    between atoms: _496  and  _497
REMARK  202  A    between atoms: _499  and  _501
REMARK  203  A    between atoms: _501  and  _502
REMARK  204  A    between atoms: _501  and  _504
REMARK  205  A    between atoms: _504  and  _505
REMARK  206  A    between atoms: _508  and  _510
REMARK  207  A    between atoms: _510  and  _511
REMARK  208  A    between atoms: _510  and  _513
REMARK  209  A    between atoms: _513  and  _514
REMARK  210  A    between atoms: _516  and  _518
REMARK  211  A    between atoms: _518  and  _519
REMARK  212  A    between atoms: _521  and  _523
REMARK  213  A    between atoms: _523  and  _524
REMARK  214  A    between atoms: _523  and  _526
REMARK  215  A    between atoms: _526  and  _527
REMARK  216  A    between atoms: _533  and  _535
REMARK  217  A    between atoms: _535  and  _536
REMARK  218  A    between atoms: _535  and  _538
REMARK  219  A    between atoms: _538  and  _539
REMARK  220  A    between atoms: _542  and  _544
REMARK  221  A    between atoms: _544  and  _545
REMARK  222  A    between atoms: _548  and  _550
REMARK  223  A    between atoms: _550  and  _551
REMARK  224  A    between atoms: _550  and  _553
REMARK  225  A    between atoms: _553  and  _554
REMARK  226  A    between atoms: _557  and  _559
REMARK  227  A    between atoms: _559  and  _560
REMARK  228  A    between atoms: _559  and  _562
REMARK  229  A    between atoms: _562  and  _563
REMARK  230  A    between atoms: _568  and  _570
REMARK  231  A    between atoms: _570  and  _571
REMARK  232  A    between atoms: _574  and  _576
REMARK  233  A    between atoms: _576  and  _577
REMARK  234  A    between atoms: _576  and  _579
REMARK  235  A    between atoms: _579  and  _580
REMARK  236  A    between atoms: _580  and  _581
REMARK  237  A    between atoms: _583  and  _585
REMARK  238  A    between atoms: _585  and  _586
REMARK  239  A    between atoms: _585  and  _588
REMARK  240  A    between atoms: _588  and  _589
REMARK  241  A    between atoms: _592  and  _594
REMARK  242  A    between atoms: _594  and  _595
REMARK  243  A    between atoms: _594  and  _597
REMARK  244  A    between atoms: _597  and  _598
REMARK  245  A    between atoms: _602  and  _603
REMARK  246  A    between atoms: _608  and  _610
REMARK  247  A    between atoms: _610  and  _611
REMARK  248  A    between atoms: _610  and  _613
REMARK  249  A    between atoms: _613  and  _614
REMARK  250  A    between atoms: _617  and  _619
REMARK  251  A    between atoms: _619  and  _620
REMARK  252  A    between atoms: _622  and  _624
REMARK  253  A    between atoms: _624  and  _625
REMARK  254  A    between atoms: _624  and  _627
REMARK  255  A    between atoms: _627  and  _628
REMARK  256  A    between atoms: _631  and  _633
REMARK  257  A    between atoms: _633  and  _634
REMARK  258  A    between atoms: _633  and  _636
REMARK  259  A    between atoms: _636  and  _637
REMARK  260  A    between atoms: _647  and  _649
REMARK  261  A    between atoms: _649  and  _650
REMARK  262  A    between atoms: _653  and  _655
REMARK  263  A    between atoms: _655  and  _656
REMARK  264  A    between atoms: _655  and  _658
REMARK  265  A    between atoms: _658  and  _659
REMARK  266  A    between atoms: _662  and  _664
REMARK  267  A    between atoms: _664  and  _665
REMARK  268  A    between atoms: _667  and  _669
REMARK  269  A    between atoms: _669  and  _670
REMARK  270  A    between atoms: _673  and  _675
REMARK  271  A    between atoms: _675  and  _676
REMARK  272  A    between atoms: _675  and  _678
REMARK  273  A    between atoms: _678  and  _679
REMARK  274  A    between atoms: _682  and  _684
REMARK  275  A    between atoms: _684  and  _685
REMARK  276  A    between atoms: _684  and  _687
REMARK  277  A    between atoms: _687  and  _688
REMARK                            x       y       z     vdW  Elec       q    Type
REMARK                         _______ _______ _______ _____ _____    ______ ____
ROOT
ATOM      1  O   HOH     1     -16.951 -34.705 -35.042  0.00  0.00    +0.000 OA
ENDROOT
TORSDOF 0
REMARK  Name = ../refined-set-2016/3own/3own_pocket.pdb
REMARK  277 active torsions:
REMARK  status: ('A' for Active; 'I' for Inactive)
REMARK    1  A    between atoms: _1  and  _3
REMARK    2  A    between atoms: _3  and  _4
REMARK    3  A    between atoms: _3  and  _6
REMARK    4  A    between atoms: _6  and  _7
REMARK    5  A    between atoms: _12  and  _13
REMARK    6  A    between atoms: _15  and  _17
REMARK    7  A    between atoms: _17  and  _18
REMARK    8  A    between atoms: _17  and  _20
REMARK    9  A    between atoms: _20  and  _21
REMARK   10  A    between atoms: _24  and  _26
REMARK   11  A    between atoms: _26  and  _27
REMARK   12  A    between atoms: _26  and  _29
REMARK   13  A    between atoms: _29  and  _30
REMARK   14  A    between atoms: _33  and  _35
REMARK   15  A    between atoms: _35  and  _36
REMARK   16  A    between atoms: _35  and  _38
REMARK   17  A    between atoms: _38  and  _39
REMARK   18  A    between atoms: _39  and  _40
REMARK   19  A    between atoms: _45  and  _47
REMARK   20  A    between atoms: _47  and  _48
REMARK   21  A    between atoms: _47  and  _50
REMARK   22  A    between atoms: _50  and  _51
REMARK   23  A    between atoms: _56  and  _57
REMARK   24  A    between atoms: _59  and  _61
REMARK   25  A    between atoms: _61  and  _62
REMARK   26  A    between atoms: _61  and  _64
REMARK   27  A    between atoms: _67  and  _69
REMARK   28  A    between atoms: _69  and  _70
REMARK   29  A    between atoms: _69  and  _72
REMARK   30  A    between atoms: _72  and  _73
REMARK   31  A    between atoms: _79  and  _81
REMARK   32  A    between atoms: _81  and  _82
REMARK   33  A    between atoms: _81  and  _84
REMARK   34  A    between atoms: _84  and  _85
REMARK   35  A    between atoms: _88  and  _90
REMARK   36  A    between atoms: _90  and  _91
REMARK   37  A    between atoms: _90  and  _93
REMARK   38  A    between atoms: _93  and  _94
REMARK   39  A    between atoms: _97  and  _99
REMARK   40  A    between atoms: _99  and  _100
REMARK   41  A    between atoms: _102  and  _104
REMARK   42  A    between atoms: _104  and  _105
REMARK   43  A    between atoms: _104  and  _107
REMARK   44  A    between atoms: _107  and  _108
REMARK   45  A    between atoms: _110  and  _112
REMARK   46  A    between atoms: _112  and  _113
REMARK   47  A    between atoms: _112  and  _115
REMARK   48  A    between atoms: _115  and  _116
REMARK   49  A    between atoms: _118  and  _120
REMARK   50  A    between atoms: _120  and  _121
REMARK   51  A    between atoms: _120  and  _123
REMARK   52  A    between atoms: _123  and  _124
REMARK   53  A    between atoms: _129  and  _131
REMARK   54  A    between atoms: _131  and  _132
REMARK   55  A    between atoms: _131  and  _134
REMARK   56  A    between atoms: _134  and  _135
REMARK   57  A    between atoms: _145  and  _147
REMARK   58  A    between atoms: _147  and  _148
REMARK   59  A    between atoms: _147  and  _150
REMARK   60  A    between atoms: _150  and  _151
REMARK   61  A    between atoms: _154  and  _156
REMARK   62  A    between atoms: _156  and  _157
REMARK   63  A    between atoms: _156  and  _159
REMARK   64  A    between atoms: _159  and  _160
REMARK   65  A    between atoms: _163  and  _165
REMARK   66  A    between atoms: _165  and  _166
REMARK   67  A    between atoms: _165  and  _168
REMARK   68  A    between atoms: _168  and  _169
REMARK   69  A    between atoms: _169  and  _170
REMARK   70  A    between atoms: _170  and  _171
REMARK   71  A    between atoms: _180  and  _182
REMARK   72  A    between atoms: _182  and  _183
REMARK   73  A    between atoms: _182  and  _185
REMARK   74  A    between atoms: _185  and  _186
REMARK   75  A    between atoms: _191  and  _192
REMARK   76  A    between atoms: _194  and  _196
REMARK   77  A    between atoms: _196  and  _197
REMARK   78  A    between atoms: _196  and  _199
REMARK   79  A    between atoms: _199  and  _200
REMARK   80  A    between atoms: _202  and  _204
REMARK   81  A    between atoms: _204  and  _205
REMARK   82  A    between atoms: _204  and  _207
REMARK   83  A    between atoms: _207  and  _208
REMARK   84  A    between atoms: _211  and  _213
REMARK   85  A    between atoms: _213  and  _214
REMARK   86  A    between atoms: _216  and  _218
REMARK   87  A    between atoms: _218  and  _219
REMARK   88  A    between atoms: _218  and  _221
REMARK   89  A    between atoms: _224  and  _226
REMARK   90  A    between atoms: _226  and  _227
REMARK   91  A    between atoms: _226  and  _229
REMARK   92  A    between atoms: _229  and  _230
REMARK   93  A    between atoms: _230  and  _231
REMARK   94  A    between atoms: _233  and  _235
REMARK   95  A    between atoms: _235  and  _236
REMARK   96  A    between atoms: _239  and  _241
REMARK   97  A    between atoms: _241  and  _242
REMARK   98  A    between atoms: _241  and  _244
REMARK   99  A    between atoms: _244  and  _245
REMARK  100  A    between atoms: _249  and  _250
REMARK  101  A    between atoms: _255  and  _257
REMARK  102  A    between atoms: _257  and  _258
REMARK  103  A    between atoms: _257  and  _260
REMARK  104  A    between atoms: _260  and  _261
REMARK  105  A    between atoms: _267  and  _269
REMARK  106  A    between atoms: _269  and  _270
REMARK  107  A    between atoms: _269  and  _272
REMARK  108  A    between atoms: _272  and  _273
REMARK  109  A    between atoms: _273  and  _274
REMARK  110  A    between atoms: _276  and  _278
REMARK  111  A    between atoms: _278  and  _279
REMARK  112  A    between atoms: _278  and  _281
REMARK  113  A    between atoms: _281  and  _282
REMARK  114  A    between atoms: _285  and  _287
REMARK  115  A    between atoms: _287  and  _288
REMARK  116  A    between atoms: _291  and  _293
REMARK  117  A    between atoms: _293  and  _294
REMARK  118  A    between atoms: _293  and  _296
REMARK  119  A    between atoms: _296  and  _297
REMARK  120  A    between atoms: _297  and  _298
REMARK  121  A    between atoms: _301  and  _303
REMARK  122  A    between atoms: _303  and  _304
REMARK  123  A    between atoms: _303  and  _306
REMARK  124  A    between atoms: _306  and  _307
REMARK  125  A    between atoms: _313  and  _315
REMARK  126  A    between atoms: _315  and  _316
REMARK  127  A    between atoms: _315  and  _318
REMARK  128  A    between atoms: _318  and  _319
REMARK  129  A    between atoms: _322  and  _324
REMARK  130  A    between atoms: _324  and  _325
REMARK  131  A    between atoms: _327  and  _329
REMARK  132  A    between atoms: _329  and  _330
REMARK  133  A    between atoms: _329  and  _332
REMARK  134  A    between atoms: _335  and  _337
REMARK  135  A    between atoms: _337  and  _338
REMARK  136  A    between atoms: _337  and  _340
REMARK  137  A    between atoms: _343  and  _345
REMARK  138  A    between atoms: _345  and  _346
REMARK  139  A    between atoms: _345  and  _348
REMARK  140  A    between atoms: _348  and  _349
REMARK  141  A    between atoms: _349  and  _350
REMARK  142  A    between atoms: _352  and  _354
REMARK  143  A    between atoms: _354  and  _355
REMARK  144  A    between atoms: _357  and  _359
REMARK  145  A    between atoms: _359  and  _360
REMARK  146  A    between atoms: _359  and  _362
REMARK  147  A    between atoms: _362  and  _363
REMARK  148  A    between atoms: _369  and  _371
REMARK  149  A    between atoms: _371  and  _372
REMARK  150  A    between atoms: _371  and  _374
REMARK  151  A    between atoms: _374  and  _375
REMARK  152  A    between atoms: _375  and  _376
REMARK  153  A    between atoms: _379  and  _381
REMARK  154  A    between atoms: _381  and  _382
REMARK  155  A    between atoms: _381  and  _384
REMARK  156  A    between atoms: _384  and  _385
REMARK  157  A    between atoms: _385  and  _386
REMARK  158  A    between atoms: _391  and  _393
REMARK  159  A    between atoms: _393  and  _394
REMARK  160  A    between atoms: _397  and  _399
REMARK  161  A    between atoms: _399  and  _400
REMARK  162  A    between atoms: _399  and  _402
REMARK  163  A    between atoms: _402  and  _403
REMARK  164  A    between atoms: _406  and  _408
REMARK  165  A    between atoms: _408  and  _409
REMARK  166  A    between atoms: _411  and  _413
REMARK  167  A    between atoms: _413  and  _414
REMARK  168  A    between atoms: _413  and  _416
REMARK  169  A    between atoms: _419  and  _421
REMARK  170  A    between atoms: _421  and  _422
REMARK  171  A    between atoms: _421  and  _424
REMARK  172  A    between atoms: _424  and  _425
REMARK  173  A    between atoms: _425  and  _426
REMARK  174  A    between atoms: _431  and  _433
REMARK  175  A    between atoms: _433  and  _434
REMARK  176  A    between atoms: _433  and  _436
REMARK  177  A    between atoms: _436  and  _437
REMARK  178  A    between atoms: _440  and  _442
REMARK  179  A    between atoms: _442  and  _443
REMARK  180  A    between atoms: _442  and  _445
REMARK  181  A    between atoms: _448  and  _450
REMARK  182  A    between atoms: _450  and  _451
REMARK  183  A    between atoms: _450  and  _453
REMARK  184  A    between atoms: _453  and  _454
REMARK  185  A    between atoms: _457  and  _459
REMARK  186  A    between atoms: _459  and  _460
REMARK  187  A    between atoms: _459  and  _462
REMARK  188  A    between atoms: _462  and  _463
REMARK  189  A    between atoms: _466  and  _468
REMARK  190  A    between atoms: _468  and  _469
REMARK  191  A    between atoms: _471  and  _473
REMARK  192  A    between atoms: _473  and  _474
REMARK  193  A    between atoms: _477  and  _479
REMARK  194  A    between atoms: _479  and  _480
REMARK  195  A    between atoms: _479  and  _482
REMARK  196  A    between atoms: _482  and  _483
REMARK  197  A    between atoms: _485  and  _487
REMARK  198  A    between atoms: _487  and  _488
REMARK  199  A    between atoms: _487  and  _490
REMARK  200  A    between atoms: _490  and  _491
REMARK  201  A    between atoms: _496  and  _497
REMARK  202  A    between atoms: _499  and  _501
REMARK  203  A    between atoms: _501  and  _502
REMARK  204  A    between atoms: _501  and  _504
REMARK  205  A    between atoms: _504  and  _505
REMARK  206  A    between atoms: _508  and  _510
REMARK  207  A    between atoms: _510  and  _511
REMARK  208  A    between atoms: _510  and  _513
REMARK  209  A    between atoms: _513  and  _514
REMARK  210  A    between atoms: _516  and  _518
REMARK  211  A    between atoms: _518  and  _519
REMARK  212  A    between atoms: _521  and  _523
REMARK  213  A    between atoms: _523  and  _524
REMARK  214  A    between atoms: _523  and  _526
REMARK  215  A    between atoms: _526  and  _527
REMARK  216  A    between atoms: _533  and  _535
REMARK  217  A    between atoms: _535  and  _536
REMARK  218  A    between atoms: _535  and  _538
REMARK  219  A    between atoms: _538  and  _539
REMARK  220  A    between atoms: _542  and  _544
REMARK  221  A    between atoms: _544  and  _545
REMARK  222  A    between atoms: _548  and  _550
REMARK  223  A    between atoms: _550  and  _551
REMARK  224  A    between atoms: _550  and  _553
REMARK  225  A    between atoms: _553  and  _554
REMARK  226  A    between atoms: _557  and  _559
REMARK  227  A    between atoms: _559  and  _560
REMARK  228  A    between atoms: _559  and  _562
REMARK  229  A    between atoms: _562  and  _563
REMARK  230  A    between atoms: _568  and  _570
REMARK  231  A    between atoms: _570  and  _571
REMARK  232  A    between atoms: _574  and  _576
REMARK  233  A    between atoms: _576  and  _577
REMARK  234  A    between atoms: _576  and  _579
REMARK  235  A    between atoms: _579  and  _580
REMARK  236  A    between atoms: _580  and  _581
REMARK  237  A    between atoms: _583  and  _585
REMARK  238  A    between atoms: _585  and  _586
REMARK  239  A    between atoms: _585  and  _588
REMARK  240  A    between atoms: _588  and  _589
REMARK  241  A    between atoms: _592  and  _594
REMARK  242  A    between atoms: _594  and  _595
REMARK  243  A    between atoms: _594  and  _597
REMARK  244  A    between atoms: _597  and  _598
REMARK  245  A    between atoms: _602  and  _603
REMARK  246  A    between atoms: _608  and  _610
REMARK  247  A    between atoms: _610  and  _611
REMARK  248  A    between atoms: _610  and  _613
REMARK  249  A    between atoms: _613  and  _614
REMARK  250  A    between atoms: _617  and  _619
REMARK  251  A    between atoms: _619  and  _620
REMARK  252  A    between atoms: _622  and  _624
REMARK  253  A    between atoms: _624  and  _625
REMARK  254  A    between atoms: _624  and  _627
REMARK  255  A    between atoms: _627  and  _628
REMARK  256  A    between atoms: _631  and  _633
REMARK  257  A    between atoms: _633  and  _634
REMARK  258  A    between atoms: _633  and  _636
REMARK  259  A    between atoms: _636  and  _637
REMARK  260  A    between atoms: _647  and  _649
REMARK  261  A    between atoms: _649  and  _650
REMARK  262  A    between atoms: _653  and  _655
REMARK  263  A    between atoms: _655  and  _656
REMARK  264  A    between atoms: _655  and  _658
REMARK  265  A    between atoms: _658  and  _659
REMARK  266  A    between atoms: _662  and  _664
REMARK  267  A    between atoms: _664  and  _665
REMARK  268  A    between atoms: _667  and  _669
REMARK  269  A    between atoms: _669  and  _670
REMARK  270  A    between atoms: _673  and  _675
REMARK  271  A    between atoms: _675  and  _676
REMARK  272  A    between atoms: _675  and  _678
REMARK  273  A    between atoms: _678  and  _679
REMARK  274  A    between atoms: _682  and  _684
REMARK  275  A    between atoms: _684  and  _685
REMARK  276  A    between atoms: _684  and  _687
REMARK  277  A    between atoms: _687  and  _688
REMARK                            x       y       z     vdW  Elec       q    Type
REMARK                         _______ _______ _______ _____ _____    ______ ____
ROOT
ATOM      1  O   HOH     1     -13.705 -28.207 -44.128  0.00  0.00    +0.000 OA
ENDROOT
TORSDOF 0
REMARK  Name = ../refined-set-2016/3own/3own_pocket.pdb
REMARK  277 active torsions:
REMARK  status: ('A' for Active; 'I' for Inactive)
REMARK    1  A    between atoms: _1  and  _3
REMARK    2  A    between atoms: _3  and  _4
REMARK    3  A    between atoms: _3  and  _6
REMARK    4  A    between atoms: _6  and  _7
REMARK    5  A    between atoms: _12  and  _13
REMARK    6  A    between atoms: _15  and  _17
REMARK    7  A    between atoms: _17  and  _18
REMARK    8  A    between atoms: _17  and  _20
REMARK    9  A    between atoms: _20  and  _21
REMARK   10  A    between atoms: _24  and  _26
REMARK   11  A    between atoms: _26  and  _27
REMARK   12  A    between atoms: _26  and  _29
REMARK   13  A    between atoms: _29  and  _30
REMARK   14  A    between atoms: _33  and  _35
REMARK   15  A    between atoms: _35  and  _36
REMARK   16  A    between atoms: _35  and  _38
REMARK   17  A    between atoms: _38  and  _39
REMARK   18  A    between atoms: _39  and  _40
REMARK   19  A    between atoms: _45  and  _47
REMARK   20  A    between atoms: _47  and  _48
REMARK   21  A    between atoms: _47  and  _50
REMARK   22  A    between atoms: _50  and  _51
REMARK   23  A    between atoms: _56  and  _57
REMARK   24  A    between atoms: _59  and  _61
REMARK   25  A    between atoms: _61  and  _62
REMARK   26  A    between atoms: _61  and  _64
REMARK   27  A    between atoms: _67  and  _69
REMARK   28  A    between atoms: _69  and  _70
REMARK   29  A    between atoms: _69  and  _72
REMARK   30  A    between atoms: _72  and  _73
REMARK   31  A    between atoms: _79  and  _81
REMARK   32  A    between atoms: _81  and  _82
REMARK   33  A    between atoms: _81  and  _84
REMARK   34  A    between atoms: _84  and  _85
REMARK   35  A    between atoms: _88  and  _90
REMARK   36  A    between atoms: _90  and  _91
REMARK   37  A    between atoms: _90  and  _93
REMARK   38  A    between atoms: _93  and  _94
REMARK   39  A    between atoms: _97  and  _99
REMARK   40  A    between atoms: _99  and  _100
REMARK   41  A    between atoms: _102  and  _104
REMARK   42  A    between atoms: _104  and  _105
REMARK   43  A    between atoms: _104  and  _107
REMARK   44  A    between atoms: _107  and  _108
REMARK   45  A    between atoms: _110  and  _112
REMARK   46  A    between atoms: _112  and  _113
REMARK   47  A    between atoms: _112  and  _115
REMARK   48  A    between atoms: _115  and  _116
REMARK   49  A    between atoms: _118  and  _120
REMARK   50  A    between atoms: _120  and  _121
REMARK   51  A    between atoms: _120  and  _123
REMARK   52  A    between atoms: _123  and  _124
REMARK   53  A    between atoms: _129  and  _131
REMARK   54  A    between atoms: _131  and  _132
REMARK   55  A    between atoms: _131  and  _134
REMARK   56  A    between atoms: _134  and  _135
REMARK   57  A    between atoms: _145  and  _147
REMARK   58  A    between atoms: _147  and  _148
REMARK   59  A    between atoms: _147  and  _150
REMARK   60  A    between atoms: _150  and  _151
REMARK   61  A    between atoms: _154  and  _156
REMARK   62  A    between atoms: _156  and  _157
REMARK   63  A    between atoms: _156  and  _159
REMARK   64  A    between atoms: _159  and  _160
REMARK   65  A    between atoms: _163  and  _165
REMARK   66  A    between atoms: _165  and  _166
REMARK   67  A    between atoms: _165  and  _168
REMARK   68  A    between atoms: _168  and  _169
REMARK   69  A    between atoms: _169  and  _170
REMARK   70  A    between atoms: _170  and  _171
REMARK   71  A    between atoms: _180  and  _182
REMARK   72  A    between atoms: _182  and  _183
REMARK   73  A    between atoms: _182  and  _185
REMARK   74  A    between atoms: _185  and  _186
REMARK   75  A    between atoms: _191  and  _192
REMARK   76  A    between atoms: _194  and  _196
REMARK   77  A    between atoms: _196  and  _197
REMARK   78  A    between atoms: _196  and  _199
REMARK   79  A    between atoms: _199  and  _200
REMARK   80  A    between atoms: _202  and  _204
REMARK   81  A    between atoms: _204  and  _205
REMARK   82  A    between atoms: _204  and  _207
REMARK   83  A    between atoms: _207  and  _208
REMARK   84  A    between atoms: _211  and  _213
REMARK   85  A    between atoms: _213  and  _214
REMARK   86  A    between atoms: _216  and  _218
REMARK   87  A    between atoms: _218  and  _219
REMARK   88  A    between atoms: _218  and  _221
REMARK   89  A    between atoms: _224  and  _226
REMARK   90  A    between atoms: _226  and  _227
REMARK   91  A    between atoms: _226  and  _229
REMARK   92  A    between atoms: _229  and  _230
REMARK   93  A    between atoms: _230  and  _231
REMARK   94  A    between atoms: _233  and  _235
REMARK   95  A    between atoms: _235  and  _236
REMARK   96  A    between atoms: _239  and  _241
REMARK   97  A    between atoms: _241  and  _242
REMARK   98  A    between atoms: _241  and  _244
REMARK   99  A    between atoms: _244  and  _245
REMARK  100  A    between atoms: _249  and  _250
REMARK  101  A    between atoms: _255  and  _257
REMARK  102  A    between atoms: _257  and  _258
REMARK  103  A    between atoms: _257  and  _260
REMARK  104  A    between atoms: _260  and  _261
REMARK  105  A    between atoms: _267  and  _269
REMARK  106  A    between atoms: _269  and  _270
REMARK  107  A    between atoms: _269  and  _272
REMARK  108  A    between atoms: _272  and  _273
REMARK  109  A    between atoms: _273  and  _274
REMARK  110  A    between atoms: _276  and  _278
REMARK  111  A    between atoms: _278  and  _279
REMARK  112  A    between atoms: _278  and  _281
REMARK  113  A    between atoms: _281  and  _282
REMARK  114  A    between atoms: _285  and  _287
REMARK  115  A    between atoms: _287  and  _288
REMARK  116  A    between atoms: _291  and  _293
REMARK  117  A    between atoms: _293  and  _294
REMARK  118  A    between atoms: _293  and  _296
REMARK  119  A    between atoms: _296  and  _297
REMARK  120  A    between atoms: _297  and  _298
REMARK  121  A    between atoms: _301  and  _303
REMARK  122  A    between atoms: _303  and  _304
REMARK  123  A    between atoms: _303  and  _306
REMARK  124  A    between atoms: _306  and  _307
REMARK  125  A    between atoms: _313  and  _315
REMARK  126  A    between atoms: _315  and  _316
REMARK  127  A    between atoms: _315  and  _318
REMARK  128  A    between atoms: _318  and  _319
REMARK  129  A    between atoms: _322  and  _324
REMARK  130  A    between atoms: _324  and  _325
REMARK  131  A    between atoms: _327  and  _329
REMARK  132  A    between atoms: _329  and  _330
REMARK  133  A    between atoms: _329  and  _332
REMARK  134  A    between atoms: _335  and  _337
REMARK  135  A    between atoms: _337  and  _338
REMARK  136  A    between atoms: _337  and  _340
REMARK  137  A    between atoms: _343  and  _345
REMARK  138  A    between atoms: _345  and  _346
REMARK  139  A    between atoms: _345  and  _348
REMARK  140  A    between atoms: _348  and  _349
REMARK  141  A    between atoms: _349  and  _350
REMARK  142  A    between atoms: _352  and  _354
REMARK  143  A    between atoms: _354  and  _355
REMARK  144  A    between atoms: _357  and  _359
REMARK  145  A    between atoms: _359  and  _360
REMARK  146  A    between atoms: _359  and  _362
REMARK  147  A    between atoms: _362  and  _363
REMARK  148  A    between atoms: _369  and  _371
REMARK  149  A    between atoms: _371  and  _372
REMARK  150  A    between atoms: _371  and  _374
REMARK  151  A    between atoms: _374  and  _375
REMARK  152  A    between atoms: _375  and  _376
REMARK  153  A    between atoms: _379  and  _381
REMARK  154  A    between atoms: _381  and  _382
REMARK  155  A    between atoms: _381  and  _384
REMARK  156  A    between atoms: _384  and  _385
REMARK  157  A    between atoms: _385  and  _386
REMARK  158  A    between atoms: _391  and  _393
REMARK  159  A    between atoms: _393  and  _394
REMARK  160  A    between atoms: _397  and  _399
REMARK  161  A    between atoms: _399  and  _400
REMARK  162  A    between atoms: _399  and  _402
REMARK  163  A    between atoms: _402  and  _403
REMARK  164  A    between atoms: _406  and  _408
REMARK  165  A    between atoms: _408  and  _409
REMARK  166  A    between atoms: _411  and  _413
REMARK  167  A    between atoms: _413  and  _414
REMARK  168  A    between atoms: _413  and  _416
REMARK  169  A    between atoms: _419  and  _421
REMARK  170  A    between atoms: _421  and  _422
REMARK  171  A    between atoms: _421  and  _424
REMARK  172  A    between atoms: _424  and  _425
REMARK  173  A    between atoms: _425  and  _426
REMARK  174  A    between atoms: _431  and  _433
REMARK  175  A    between atoms: _433  and  _434
REMARK  176  A    between atoms: _433  and  _436
REMARK  177  A    between atoms: _436  and  _437
REMARK  178  A    between atoms: _440  and  _442
REMARK  179  A    between atoms: _442  and  _443
REMARK  180  A    between atoms: _442  and  _445
REMARK  181  A    between atoms: _448  and  _450
REMARK  182  A    between atoms: _450  and  _451
REMARK  183  A    between atoms: _450  and  _453
REMARK  184  A    between atoms: _453  and  _454
REMARK  185  A    between atoms: _457  and  _459
REMARK  186  A    between atoms: _459  and  _460
REMARK  187  A    between atoms: _459  and  _462
REMARK  188  A    between atoms: _462  and  _463
REMARK  189  A    between atoms: _466  and  _468
REMARK  190  A    between atoms: _468  and  _469
REMARK  191  A    between atoms: _471  and  _473
REMARK  192  A    between atoms: _473  and  _474
REMARK  193  A    between atoms: _477  and  _479
REMARK  194  A    between atoms: _479  and  _480
REMARK  195  A    between atoms: _479  and  _482
REMARK  196  A    between atoms: _482  and  _483
REMARK  197  A    between atoms: _485  and  _487
REMARK  198  A    between atoms: _487  and  _488
REMARK  199  A    between atoms: _487  and  _490
REMARK  200  A    between atoms: _490  and  _491
REMARK  201  A    between atoms: _496  and  _497
REMARK  202  A    between atoms: _499  and  _501
REMARK  203  A    between atoms: _501  and  _502
REMARK  204  A    between atoms: _501  and  _504
REMARK  205  A    between atoms: _504  and  _505
REMARK  206  A    between atoms: _508  and  _510
REMARK  207  A    between atoms: _510  and  _511
REMARK  208  A    between atoms: _510  and  _513
REMARK  209  A    between atoms: _513  and  _514
REMARK  210  A    between atoms: _516  and  _518
REMARK  211  A    between atoms: _518  and  _519
REMARK  212  A    between atoms: _521  and  _523
REMARK  213  A    between atoms: _523  and  _524
REMARK  214  A    between atoms: _523  and  _526
REMARK  215  A    between atoms: _526  and  _527
REMARK  216  A    between atoms: _533  and  _535
REMARK  217  A    between atoms: _535  and  _536
REMARK  218  A    between atoms: _535  and  _538
REMARK  219  A    between atoms: _538  and  _539
REMARK  220  A    between atoms: _542  and  _544
REMARK  221  A    between atoms: _544  and  _545
REMARK  222  A    between atoms: _548  and  _550
REMARK  223  A    between atoms: _550  and  _551
REMARK  224  A    between atoms: _550  and  _553
REMARK  225  A    between atoms: _553  and  _554
REMARK  226  A    between atoms: _557  and  _559
REMARK  227  A    between atoms: _559  and  _560
REMARK  228  A    between atoms: _559  and  _562
REMARK  229  A    between atoms: _562  and  _563
REMARK  230  A    between atoms: _568  and  _570
REMARK  231  A    between atoms: _570  and  _571
REMARK  232  A    between atoms: _574  and  _576
REMARK  233  A    between atoms: _576  and  _577
REMARK  234  A    between atoms: _576  and  _579
REMARK  235  A    between atoms: _579  and  _580
REMARK  236  A    between atoms: _580  and  _581
REMARK  237  A    between atoms: _583  and  _585
REMARK  238  A    between atoms: _585  and  _586
REMARK  239  A    between atoms: _585  and  _588
REMARK  240  A    between atoms: _588  and  _589
REMARK  241  A    between atoms: _592  and  _594
REMARK  242  A    between atoms: _594  and  _595
REMARK  243  A    between atoms: _594  and  _597
REMARK  244  A    between atoms: _597  and  _598
REMARK  245  A    between atoms: _602  and  _603
REMARK  246  A    between atoms: _608  and  _610
REMARK  247  A    between atoms: _610  and  _611
REMARK  248  A    between atoms: _610  and  _613
REMARK  249  A    between atoms: _613  and  _614
REMARK  250  A    between atoms: _617  and  _619
REMARK  251  A    between atoms: _619  and  _620
REMARK  252  A    between atoms: _622  and  _624
REMARK  253  A    between atoms: _624  and  _625
REMARK  254  A    between atoms: _624  and  _627
REMARK  255  A    between atoms: _627  and  _628
REMARK  256  A    between atoms: _631  and  _633
REMARK  257  A    between atoms: _633  and  _634
REMARK  258  A    between atoms: _633  and  _636
REMARK  259  A    between atoms: _636  and  _637
REMARK  260  A    between atoms: _647  and  _649
REMARK  261  A    between atoms: _649  and  _650
REMARK  262  A    between atoms: _653  and  _655
REMARK  263  A    between atoms: _655  and  _656
REMARK  264  A    between atoms: _655  and  _658
REMARK  265  A    between atoms: _658  and  _659
REMARK  266  A    between atoms: _662  and  _664
REMARK  267  A    between atoms: _664  and  _665
REMARK  268  A    between atoms: _667  and  _669
REMARK  269  A    between atoms: _669  and  _670
REMARK  270  A    between atoms: _673  and  _675
REMARK  271  A    between atoms: _675  and  _676
REMARK  272  A    between atoms: _675  and  _678
REMARK  273  A    between atoms: _678  and  _679
REMARK  274  A    between atoms: _682  and  _684
REMARK  275  A    between atoms: _684  and  _685
REMARK  276  A    between atoms: _684  and  _687
REMARK  277  A    between atoms: _687  and  _688
REMARK                            x       y       z     vdW  Elec       q    Type
REMARK                         _______ _______ _______ _____ _____    ______ ____
ROOT
ATOM      1  O   HOH     1      -5.398 -32.640 -46.744  0.00  0.00    +0.000 OA
ENDROOT
TORSDOF 0
REMARK  Name = ../refined-set-2016/3own/3own_pocket.pdb
REMARK  277 active torsions:
REMARK  status: ('A' for Active; 'I' for Inactive)
REMARK    1  A    between atoms: _1  and  _3
REMARK    2  A    between atoms: _3  and  _4
REMARK    3  A    between atoms: _3  and  _6
REMARK    4  A    between atoms: _6  and  _7
REMARK    5  A    between atoms: _12  and  _13
REMARK    6  A    between atoms: _15  and  _17
REMARK    7  A    between atoms: _17  and  _18
REMARK    8  A    between atoms: _17  and  _20
REMARK    9  A    between atoms: _20  and  _21
REMARK   10  A    between atoms: _24  and  _26
REMARK   11  A    between atoms: _26  and  _27
REMARK   12  A    between atoms: _26  and  _29
REMARK   13  A    between atoms: _29  and  _30
REMARK   14  A    between atoms: _33  and  _35
REMARK   15  A    between atoms: _35  and  _36
REMARK   16  A    between atoms: _35  and  _38
REMARK   17  A    between atoms: _38  and  _39
REMARK   18  A    between atoms: _39  and  _40
REMARK   19  A    between atoms: _45  and  _47
REMARK   20  A    between atoms: _47  and  _48
REMARK   21  A    between atoms: _47  and  _50
REMARK   22  A    between atoms: _50  and  _51
REMARK   23  A    between atoms: _56  and  _57
REMARK   24  A    between atoms: _59  and  _61
REMARK   25  A    between atoms: _61  and  _62
REMARK   26  A    between atoms: _61  and  _64
REMARK   27  A    between atoms: _67  and  _69
REMARK   28  A    between atoms: _69  and  _70
REMARK   29  A    between atoms: _69  and  _72
REMARK   30  A    between atoms: _72  and  _73
REMARK   31  A    between atoms: _79  and  _81
REMARK   32  A    between atoms: _81  and  _82
REMARK   33  A    between atoms: _81  and  _84
REMARK   34  A    between atoms: _84  and  _85
REMARK   35  A    between atoms: _88  and  _90
REMARK   36  A    between atoms: _90  and  _91
REMARK   37  A    between atoms: _90  and  _93
REMARK   38  A    between atoms: _93  and  _94
REMARK   39  A    between atoms: _97  and  _99
REMARK   40  A    between atoms: _99  and  _100
REMARK   41  A    between atoms: _102  and  _104
REMARK   42  A    between atoms: _104  and  _105
REMARK   43  A    between atoms: _104  and  _107
REMARK   44  A    between atoms: _107  and  _108
REMARK   45  A    between atoms: _110  and  _112
REMARK   46  A    between atoms: _112  and  _113
REMARK   47  A    between atoms: _112  and  _115
REMARK   48  A    between atoms: _115  and  _116
REMARK   49  A    between atoms: _118  and  _120
REMARK   50  A    between atoms: _120  and  _121
REMARK   51  A    between atoms: _120  and  _123
REMARK   52  A    between atoms: _123  and  _124
REMARK   53  A    between atoms: _129  and  _131
REMARK   54  A    between atoms: _131  and  _132
REMARK   55  A    between atoms: _131  and  _134
REMARK   56  A    between atoms: _134  and  _135
REMARK   57  A    between atoms: _145  and  _147
REMARK   58  A    between atoms: _147  and  _148
REMARK   59  A    between atoms: _147  and  _150
REMARK   60  A    between atoms: _150  and  _151
REMARK   61  A    between atoms: _154  and  _156
REMARK   62  A    between atoms: _156  and  _157
REMARK   63  A    between atoms: _156  and  _159
REMARK   64  A    between atoms: _159  and  _160
REMARK   65  A    between atoms: _163  and  _165
REMARK   66  A    between atoms: _165  and  _166
REMARK   67  A    between atoms: _165  and  _168
REMARK   68  A    between atoms: _168  and  _169
REMARK   69  A    between atoms: _169  and  _170
REMARK   70  A    between atoms: _170  and  _171
REMARK   71  A    between atoms: _180  and  _182
REMARK   72  A    between atoms: _182  and  _183
REMARK   73  A    between atoms: _182  and  _185
REMARK   74  A    between atoms: _185  and  _186
REMARK   75  A    between atoms: _191  and  _192
REMARK   76  A    between atoms: _194  and  _196
REMARK   77  A    between atoms: _196  and  _197
REMARK   78  A    between atoms: _196  and  _199
REMARK   79  A    between atoms: _199  and  _200
REMARK   80  A    between atoms: _202  and  _204
REMARK   81  A    between atoms: _204  and  _205
REMARK   82  A    between atoms: _204  and  _207
REMARK   83  A    between atoms: _207  and  _208
REMARK   84  A    between atoms: _211  and  _213
REMARK   85  A    between atoms: _213  and  _214
REMARK   86  A    between atoms: _216  and  _218
REMARK   87  A    between atoms: _218  and  _219
REMARK   88  A    between atoms: _218  and  _221
REMARK   89  A    between atoms: _224  and  _226
REMARK   90  A    between atoms: _226  and  _227
REMARK   91  A    between atoms: _226  and  _229
REMARK   92  A    between atoms: _229  and  _230
REMARK   93  A    between atoms: _230  and  _231
REMARK   94  A    between atoms: _233  and  _235
REMARK   95  A    between atoms: _235  and  _236
REMARK   96  A    between atoms: _239  and  _241
REMARK   97  A    between atoms: _241  and  _242
REMARK   98  A    between atoms: _241  and  _244
REMARK   99  A    between atoms: _244  and  _245
REMARK  100  A    between atoms: _249  and  _250
REMARK  101  A    between atoms: _255  and  _257
REMARK  102  A    between atoms: _257  and  _258
REMARK  103  A    between atoms: _257  and  _260
REMARK  104  A    between atoms: _260  and  _261
REMARK  105  A    between atoms: _267  and  _269
REMARK  106  A    between atoms: _269  and  _270
REMARK  107  A    between atoms: _269  and  _272
REMARK  108  A    between atoms: _272  and  _273
REMARK  109  A    between atoms: _273  and  _274
REMARK  110  A    between atoms: _276  and  _278
REMARK  111  A    between atoms: _278  and  _279
REMARK  112  A    between atoms: _278  and  _281
REMARK  113  A    between atoms: _281  and  _282
REMARK  114  A    between atoms: _285  and  _287
REMARK  115  A    between atoms: _287  and  _288
REMARK  116  A    between atoms: _291  and  _293
REMARK  117  A    between atoms: _293  and  _294
REMARK  118  A    between atoms: _293  and  _296
REMARK  119  A    between atoms: _296  and  _297
REMARK  120  A    between atoms: _297  and  _298
REMARK  121  A    between atoms: _301  and  _303
REMARK  122  A    between atoms: _303  and  _304
REMARK  123  A    between atoms: _303  and  _306
REMARK  124  A    between atoms: _306  and  _307
REMARK  125  A    between atoms: _313  and  _315
REMARK  126  A    between atoms: _315  and  _316
REMARK  127  A    between atoms: _315  and  _318
REMARK  128  A    between atoms: _318  and  _319
REMARK  129  A    between atoms: _322  and  _324
REMARK  130  A    between atoms: _324  and  _325
REMARK  131  A    between atoms: _327  and  _329
REMARK  132  A    between atoms: _329  and  _330
REMARK  133  A    between atoms: _329  and  _332
REMARK  134  A    between atoms: _335  and  _337
REMARK  135  A    between atoms: _337  and  _338
REMARK  136  A    between atoms: _337  and  _340
REMARK  137  A    between atoms: _343  and  _345
REMARK  138  A    between atoms: _345  and  _346
REMARK  139  A    between atoms: _345  and  _348
REMARK  140  A    between atoms: _348  and  _349
REMARK  141  A    between atoms: _349  and  _350
REMARK  142  A    between atoms: _352  and  _354
REMARK  143  A    between atoms: _354  and  _355
REMARK  144  A    between atoms: _357  and  _359
REMARK  145  A    between atoms: _359  and  _360
REMARK  146  A    between atoms: _359  and  _362
REMARK  147  A    between atoms: _362  and  _363
REMARK  148  A    between atoms: _369  and  _371
REMARK  149  A    between atoms: _371  and  _372
REMARK  150  A    between atoms: _371  and  _374
REMARK  151  A    between atoms: _374  and  _375
REMARK  152  A    between atoms: _375  and  _376
REMARK  153  A    between atoms: _379  and  _381
REMARK  154  A    between atoms: _381  and  _382
REMARK  155  A    between atoms: _381  and  _384
REMARK  156  A    between atoms: _384  and  _385
REMARK  157  A    between atoms: _385  and  _386
REMARK  158  A    between atoms: _391  and  _393
REMARK  159  A    between atoms: _393  and  _394
REMARK  160  A    between atoms: _397  and  _399
REMARK  161  A    between atoms: _399  and  _400
REMARK  162  A    between atoms: _399  and  _402
REMARK  163  A    between atoms: _402  and  _403
REMARK  164  A    between atoms: _406  and  _408
REMARK  165  A    between atoms: _408  and  _409
REMARK  166  A    between atoms: _411  and  _413
REMARK  167  A    between atoms: _413  and  _414
REMARK  168  A    between atoms: _413  and  _416
REMARK  169  A    between atoms: _419  and  _421
REMARK  170  A    between atoms: _421  and  _422
REMARK  171  A    between atoms: _421  and  _424
REMARK  172  A    between atoms: _424  and  _425
REMARK  173  A    between atoms: _425  and  _426
REMARK  174  A    between atoms: _431  and  _433
REMARK  175  A    between atoms: _433  and  _434
REMARK  176  A    between atoms: _433  and  _436
REMARK  177  A    between atoms: _436  and  _437
REMARK  178  A    between atoms: _440  and  _442
REMARK  179  A    between atoms: _442  and  _443
REMARK  180  A    between atoms: _442  and  _445
REMARK  181  A    between atoms: _448  and  _450
REMARK  182  A    between atoms: _450  and  _451
REMARK  183  A    between atoms: _450  and  _453
REMARK  184  A    between atoms: _453  and  _454
REMARK  185  A    between atoms: _457  and  _459
REMARK  186  A    between atoms: _459  and  _460
REMARK  187  A    between atoms: _459  and  _462
REMARK  188  A    between atoms: _462  and  _463
REMARK  189  A    between atoms: _466  and  _468
REMARK  190  A    between atoms: _468  and  _469
REMARK  191  A    between atoms: _471  and  _473
REMARK  192  A    between atoms: _473  and  _474
REMARK  193  A    between atoms: _477  and  _479
REMARK  194  A    between atoms: _479  and  _480
REMARK  195  A    between atoms: _479  and  _482
REMARK  196  A    between atoms: _482  and  _483
REMARK  197  A    between atoms: _485  and  _487
REMARK  198  A    between atoms: _487  and  _488
REMARK  199  A    between atoms: _487  and  _490
REMARK  200  A    between atoms: _490  and  _491
REMARK  201  A    between atoms: _496  and  _497
REMARK  202  A    between atoms: _499  and  _501
REMARK  203  A    between atoms: _501  and  _502
REMARK  204  A    between atoms: _501  and  _504
REMARK  205  A    between atoms: _504  and  _505
REMARK  206  A    between atoms: _508  and  _510
REMARK  207  A    between atoms: _510  and  _511
REMARK  208  A    between atoms: _510  and  _513
REMARK  209  A    between atoms: _513  and  _514
REMARK  210  A    between atoms: _516  and  _518
REMARK  211  A    between atoms: _518  and  _519
REMARK  212  A    between atoms: _521  and  _523
REMARK  213  A    between atoms: _523  and  _524
REMARK  214  A    between atoms: _523  and  _526
REMARK  215  A    between atoms: _526  and  _527
REMARK  216  A    between atoms: _533  and  _535
REMARK  217  A    between atoms: _535  and  _536
REMARK  218  A    between atoms: _535  and  _538
REMARK  219  A    between atoms: _538  and  _539
REMARK  220  A    between atoms: _542  and  _544
REMARK  221  A    between atoms: _544  and  _545
REMARK  222  A    between atoms: _548  and  _550
REMARK  223  A    between atoms: _550  and  _551
REMARK  224  A    between atoms: _550  and  _553
REMARK  225  A    between atoms: _553  and  _554
REMARK  226  A    between atoms: _557  and  _559
REMARK  227  A    between atoms: _559  and  _560
REMARK  228  A    between atoms: _559  and  _562
REMARK  229  A    between atoms: _562  and  _563
REMARK  230  A    between atoms: _568  and  _570
REMARK  231  A    between atoms: _570  and  _571
REMARK  232  A    between atoms: _574  and  _576
REMARK  233  A    between atoms: _576  and  _577
REMARK  234  A    between atoms: _576  and  _579
REMARK  235  A    between atoms: _579  and  _580
REMARK  236  A    between atoms: _580  and  _581
REMARK  237  A    between atoms: _583  and  _585
REMARK  238  A    between atoms: _585  and  _586
REMARK  239  A    between atoms: _585  and  _588
REMARK  240  A    between atoms: _588  and  _589
REMARK  241  A    between atoms: _592  and  _594
REMARK  242  A    between atoms: _594  and  _595
REMARK  243  A    between atoms: _594  and  _597
REMARK  244  A    between atoms: _597  and  _598
REMARK  245  A    between atoms: _602  and  _603
REMARK  246  A    between atoms: _608  and  _610
REMARK  247  A    between atoms: _610  and  _611
REMARK  248  A    between atoms: _610  and  _613
REMARK  249  A    between atoms: _613  and  _614
REMARK  250  A    between atoms: _617  and  _619
REMARK  251  A    between atoms: _619  and  _620
REMARK  252  A    between atoms: _622  and  _624
REMARK  253  A    between atoms: _624  and  _625
REMARK  254  A    between atoms: _624  and  _627
REMARK  255  A    between atoms: _627  and  _628
REMARK  256  A    between atoms: _631  and  _633
REMARK  257  A    between atoms: _633  and  _634
REMARK  258  A    between atoms: _633  and  _636
REMARK  259  A    between atoms: _636  and  _637
REMARK  260  A    between atoms: _647  and  _649
REMARK  261  A    between atoms: _649  and  _650
REMARK  262  A    between atoms: _653  and  _655
REMARK  263  A    between atoms: _655  and  _656
REMARK  264  A    between atoms: _655  and  _658
REMARK  265  A    between atoms: _658  and  _659
REMARK  266  A    between atoms: _662  and  _664
REMARK  267  A    between atoms: _664  and  _665
REMARK  268  A    between atoms: _667  and  _669
REMARK  269  A    between atoms: _669  and  _670
REMARK  270  A    between atoms: _673  and  _675
REMARK  271  A    between atoms: _675  and  _676
REMARK  272  A    between atoms: _675  and  _678
REMARK  273  A    between atoms: _678  and  _679
REMARK  274  A    between atoms: _682  and  _684
REMARK  275  A    between atoms: _684  and  _685
REMARK  276  A    between atoms: _684  and  _687
REMARK  277  A    between atoms: _687  and  _688
REMARK                            x       y       z     vdW  Elec       q    Type
REMARK                         _______ _______ _______ _____ _____    ______ ____
ROOT
ATOM      1  O   HOH     1     -12.250 -32.287 -45.344  0.00  0.00    +0.000 OA
ENDROOT
TORSDOF 0
REMARK  Name = ../refined-set-2016/3own/3own_pocket.pdb
REMARK  277 active torsions:
REMARK  status: ('A' for Active; 'I' for Inactive)
REMARK    1  A    between atoms: _1  and  _3
REMARK    2  A    between atoms: _3  and  _4
REMARK    3  A    between atoms: _3  and  _6
REMARK    4  A    between atoms: _6  and  _7
REMARK    5  A    between atoms: _12  and  _13
REMARK    6  A    between atoms: _15  and  _17
REMARK    7  A    between atoms: _17  and  _18
REMARK    8  A    between atoms: _17  and  _20
REMARK    9  A    between atoms: _20  and  _21
REMARK   10  A    between atoms: _24  and  _26
REMARK   11  A    between atoms: _26  and  _27
REMARK   12  A    between atoms: _26  and  _29
REMARK   13  A    between atoms: _29  and  _30
REMARK   14  A    between atoms: _33  and  _35
REMARK   15  A    between atoms: _35  and  _36
REMARK   16  A    between atoms: _35  and  _38
REMARK   17  A    between atoms: _38  and  _39
REMARK   18  A    between atoms: _39  and  _40
REMARK   19  A    between atoms: _45  and  _47
REMARK   20  A    between atoms: _47  and  _48
REMARK   21  A    between atoms: _47  and  _50
REMARK   22  A    between atoms: _50  and  _51
REMARK   23  A    between atoms: _56  and  _57
REMARK   24  A    between atoms: _59  and  _61
REMARK   25  A    between atoms: _61  and  _62
REMARK   26  A    between atoms: _61  and  _64
REMARK   27  A    between atoms: _67  and  _69
REMARK   28  A    between atoms: _69  and  _70
REMARK   29  A    between atoms: _69  and  _72
REMARK   30  A    between atoms: _72  and  _73
REMARK   31  A    between atoms: _79  and  _81
REMARK   32  A    between atoms: _81  and  _82
REMARK   33  A    between atoms: _81  and  _84
REMARK   34  A    between atoms: _84  and  _85
REMARK   35  A    between atoms: _88  and  _90
REMARK   36  A    between atoms: _90  and  _91
REMARK   37  A    between atoms: _90  and  _93
REMARK   38  A    between atoms: _93  and  _94
REMARK   39  A    between atoms: _97  and  _99
REMARK   40  A    between atoms: _99  and  _100
REMARK   41  A    between atoms: _102  and  _104
REMARK   42  A    between atoms: _104  and  _105
REMARK   43  A    between atoms: _104  and  _107
REMARK   44  A    between atoms: _107  and  _108
REMARK   45  A    between atoms: _110  and  _112
REMARK   46  A    between atoms: _112  and  _113
REMARK   47  A    between atoms: _112  and  _115
REMARK   48  A    between atoms: _115  and  _116
REMARK   49  A    between atoms: _118  and  _120
REMARK   50  A    between atoms: _120  and  _121
REMARK   51  A    between atoms: _120  and  _123
REMARK   52  A    between atoms: _123  and  _124
REMARK   53  A    between atoms: _129  and  _131
REMARK   54  A    between atoms: _131  and  _132
REMARK   55  A    between atoms: _131  and  _134
REMARK   56  A    between atoms: _134  and  _135
REMARK   57  A    between atoms: _145  and  _147
REMARK   58  A    between atoms: _147  and  _148
REMARK   59  A    between atoms: _147  and  _150
REMARK   60  A    between atoms: _150  and  _151
REMARK   61  A    between atoms: _154  and  _156
REMARK   62  A    between atoms: _156  and  _157
REMARK   63  A    between atoms: _156  and  _159
REMARK   64  A    between atoms: _159  and  _160
REMARK   65  A    between atoms: _163  and  _165
REMARK   66  A    between atoms: _165  and  _166
REMARK   67  A    between atoms: _165  and  _168
REMARK   68  A    between atoms: _168  and  _169
REMARK   69  A    between atoms: _169  and  _170
REMARK   70  A    between atoms: _170  and  _171
REMARK   71  A    between atoms: _180  and  _182
REMARK   72  A    between atoms: _182  and  _183
REMARK   73  A    between atoms: _182  and  _185
REMARK   74  A    between atoms: _185  and  _186
REMARK   75  A    between atoms: _191  and  _192
REMARK   76  A    between atoms: _194  and  _196
REMARK   77  A    between atoms: _196  and  _197
REMARK   78  A    between atoms: _196  and  _199
REMARK   79  A    between atoms: _199  and  _200
REMARK   80  A    between atoms: _202  and  _204
REMARK   81  A    between atoms: _204  and  _205
REMARK   82  A    between atoms: _204  and  _207
REMARK   83  A    between atoms: _207  and  _208
REMARK   84  A    between atoms: _211  and  _213
REMARK   85  A    between atoms: _213  and  _214
REMARK   86  A    between atoms: _216  and  _218
REMARK   87  A    between atoms: _218  and  _219
REMARK   88  A    between atoms: _218  and  _221
REMARK   89  A    between atoms: _224  and  _226
REMARK   90  A    between atoms: _226  and  _227
REMARK   91  A    between atoms: _226  and  _229
REMARK   92  A    between atoms: _229  and  _230
REMARK   93  A    between atoms: _230  and  _231
REMARK   94  A    between atoms: _233  and  _235
REMARK   95  A    between atoms: _235  and  _236
REMARK   96  A    between atoms: _239  and  _241
REMARK   97  A    between atoms: _241  and  _242
REMARK   98  A    between atoms: _241  and  _244
REMARK   99  A    between atoms: _244  and  _245
REMARK  100  A    between atoms: _249  and  _250
REMARK  101  A    between atoms: _255  and  _257
REMARK  102  A    between atoms: _257  and  _258
REMARK  103  A    between atoms: _257  and  _260
REMARK  104  A    between atoms: _260  and  _261
REMARK  105  A    between atoms: _267  and  _269
REMARK  106  A    between atoms: _269  and  _270
REMARK  107  A    between atoms: _269  and  _272
REMARK  108  A    between atoms: _272  and  _273
REMARK  109  A    between atoms: _273  and  _274
REMARK  110  A    between atoms: _276  and  _278
REMARK  111  A    between atoms: _278  and  _279
REMARK  112  A    between atoms: _278  and  _281
REMARK  113  A    between atoms: _281  and  _282
REMARK  114  A    between atoms: _285  and  _287
REMARK  115  A    between atoms: _287  and  _288
REMARK  116  A    between atoms: _291  and  _293
REMARK  117  A    between atoms: _293  and  _294
REMARK  118  A    between atoms: _293  and  _296
REMARK  119  A    between atoms: _296  and  _297
REMARK  120  A    between atoms: _297  and  _298
REMARK  121  A    between atoms: _301  and  _303
REMARK  122  A    between atoms: _303  and  _304
REMARK  123  A    between atoms: _303  and  _306
REMARK  124  A    between atoms: _306  and  _307
REMARK  125  A    between atoms: _313  and  _315
REMARK  126  A    between atoms: _315  and  _316
REMARK  127  A    between atoms: _315  and  _318
REMARK  128  A    between atoms: _318  and  _319
REMARK  129  A    between atoms: _322  and  _324
REMARK  130  A    between atoms: _324  and  _325
REMARK  131  A    between atoms: _327  and  _329
REMARK  132  A    between atoms: _329  and  _330
REMARK  133  A    between atoms: _329  and  _332
REMARK  134  A    between atoms: _335  and  _337
REMARK  135  A    between atoms: _337  and  _338
REMARK  136  A    between atoms: _337  and  _340
REMARK  137  A    between atoms: _343  and  _345
REMARK  138  A    between atoms: _345  and  _346
REMARK  139  A    between atoms: _345  and  _348
REMARK  140  A    between atoms: _348  and  _349
REMARK  141  A    between atoms: _349  and  _350
REMARK  142  A    between atoms: _352  and  _354
REMARK  143  A    between atoms: _354  and  _355
REMARK  144  A    between atoms: _357  and  _359
REMARK  145  A    between atoms: _359  and  _360
REMARK  146  A    between atoms: _359  and  _362
REMARK  147  A    between atoms: _362  and  _363
REMARK  148  A    between atoms: _369  and  _371
REMARK  149  A    between atoms: _371  and  _372
REMARK  150  A    between atoms: _371  and  _374
REMARK  151  A    between atoms: _374  and  _375
REMARK  152  A    between atoms: _375  and  _376
REMARK  153  A    between atoms: _379  and  _381
REMARK  154  A    between atoms: _381  and  _382
REMARK  155  A    between atoms: _381  and  _384
REMARK  156  A    between atoms: _384  and  _385
REMARK  157  A    between atoms: _385  and  _386
REMARK  158  A    between atoms: _391  and  _393
REMARK  159  A    between atoms: _393  and  _394
REMARK  160  A    between atoms: _397  and  _399
REMARK  161  A    between atoms: _399  and  _400
REMARK  162  A    between atoms: _399  and  _402
REMARK  163  A    between atoms: _402  and  _403
REMARK  164  A    between atoms: _406  and  _408
REMARK  165  A    between atoms: _408  and  _409
REMARK  166  A    between atoms: _411  and  _413
REMARK  167  A    between atoms: _413  and  _414
REMARK  168  A    between atoms: _413  and  _416
REMARK  169  A    between atoms: _419  and  _421
REMARK  170  A    between atoms: _421  and  _422
REMARK  171  A    between atoms: _421  and  _424
REMARK  172  A    between atoms: _424  and  _425
REMARK  173  A    between atoms: _425  and  _426
REMARK  174  A    between atoms: _431  and  _433
REMARK  175  A    between atoms: _433  and  _434
REMARK  176  A    between atoms: _433  and  _436
REMARK  177  A    between atoms: _436  and  _437
REMARK  178  A    between atoms: _440  and  _442
REMARK  179  A    between atoms: _442  and  _443
REMARK  180  A    between atoms: _442  and  _445
REMARK  181  A    between atoms: _448  and  _450
REMARK  182  A    between atoms: _450  and  _451
REMARK  183  A    between atoms: _450  and  _453
REMARK  184  A    between atoms: _453  and  _454
REMARK  185  A    between atoms: _457  and  _459
REMARK  186  A    between atoms: _459  and  _460
REMARK  187  A    between atoms: _459  and  _462
REMARK  188  A    between atoms: _462  and  _463
REMARK  189  A    between atoms: _466  and  _468
REMARK  190  A    between atoms: _468  and  _469
REMARK  191  A    between atoms: _471  and  _473
REMARK  192  A    between atoms: _473  and  _474
REMARK  193  A    between atoms: _477  and  _479
REMARK  194  A    between atoms: _479  and  _480
REMARK  195  A    between atoms: _479  and  _482
REMARK  196  A    between atoms: _482  and  _483
REMARK  197  A    between atoms: _485  and  _487
REMARK  198  A    between atoms: _487  and  _488
REMARK  199  A    between atoms: _487  and  _490
REMARK  200  A    between atoms: _490  and  _491
REMARK  201  A    between atoms: _496  and  _497
REMARK  202  A    between atoms: _499  and  _501
REMARK  203  A    between atoms: _501  and  _502
REMARK  204  A    between atoms: _501  and  _504
REMARK  205  A    between atoms: _504  and  _505
REMARK  206  A    between atoms: _508  and  _510
REMARK  207  A    between atoms: _510  and  _511
REMARK  208  A    between atoms: _510  and  _513
REMARK  209  A    between atoms: _513  and  _514
REMARK  210  A    between atoms: _516  and  _518
REMARK  211  A    between atoms: _518  and  _519
REMARK  212  A    between atoms: _521  and  _523
REMARK  213  A    between atoms: _523  and  _524
REMARK  214  A    between atoms: _523  and  _526
REMARK  215  A    between atoms: _526  and  _527
REMARK  216  A    between atoms: _533  and  _535
REMARK  217  A    between atoms: _535  and  _536
REMARK  218  A    between atoms: _535  and  _538
REMARK  219  A    between atoms: _538  and  _539
REMARK  220  A    between atoms: _542  and  _544
REMARK  221  A    between atoms: _544  and  _545
REMARK  222  A    between atoms: _548  and  _550
REMARK  223  A    between atoms: _550  and  _551
REMARK  224  A    between atoms: _550  and  _553
REMARK  225  A    between atoms: _553  and  _554
REMARK  226  A    between atoms: _557  and  _559
REMARK  227  A    between atoms: _559  and  _560
REMARK  228  A    between atoms: _559  and  _562
REMARK  229  A    between atoms: _562  and  _563
REMARK  230  A    between atoms: _568  and  _570
REMARK  231  A    between atoms: _570  and  _571
REMARK  232  A    between atoms: _574  and  _576
REMARK  233  A    between atoms: _576  and  _577
REMARK  234  A    between atoms: _576  and  _579
REMARK  235  A    between atoms: _579  and  _580
REMARK  236  A    between atoms: _580  and  _581
REMARK  237  A    between atoms: _583  and  _585
REMARK  238  A    between atoms: _585  and  _586
REMARK  239  A    between atoms: _585  and  _588
REMARK  240  A    between atoms: _588  and  _589
REMARK  241  A    between atoms: _592  and  _594
REMARK  242  A    between atoms: _594  and  _595
REMARK  243  A    between atoms: _594  and  _597
REMARK  244  A    between atoms: _597  and  _598
REMARK  245  A    between atoms: _602  and  _603
REMARK  246  A    between atoms: _608  and  _610
REMARK  247  A    between atoms: _610  and  _611
REMARK  248  A    between atoms: _610  and  _613
REMARK  249  A    between atoms: _613  and  _614
REMARK  250  A    between atoms: _617  and  _619
REMARK  251  A    between atoms: _619  and  _620
REMARK  252  A    between atoms: _622  and  _624
REMARK  253  A    between atoms: _624  and  _625
REMARK  254  A    between atoms: _624  and  _627
REMARK  255  A    between atoms: _627  and  _628
REMARK  256  A    between atoms: _631  and  _633
REMARK  257  A    between atoms: _633  and  _634
REMARK  258  A    between atoms: _633  and  _636
REMARK  259  A    between atoms: _636  and  _637
REMARK  260  A    between atoms: _647  and  _649
REMARK  261  A    between atoms: _649  and  _650
REMARK  262  A    between atoms: _653  and  _655
REMARK  263  A    between atoms: _655  and  _656
REMARK  264  A    between atoms: _655  and  _658
REMARK  265  A    between atoms: _658  and  _659
REMARK  266  A    between atoms: _662  and  _664
REMARK  267  A    between atoms: _664  and  _665
REMARK  268  A    between atoms: _667  and  _669
REMARK  269  A    between atoms: _669  and  _670
REMARK  270  A    between atoms: _673  and  _675
REMARK  271  A    between atoms: _675  and  _676
REMARK  272  A    between atoms: _675  and  _678
REMARK  273  A    between atoms: _678  and  _679
REMARK  274  A    between atoms: _682  and  _684
REMARK  275  A    between atoms: _684  and  _685
REMARK  276  A    between atoms: _684  and  _687
REMARK  277  A    between atoms: _687  and  _688
REMARK                            x       y       z     vdW  Elec       q    Type
REMARK                         _______ _______ _______ _____ _____    ______ ____
ROOT
ATOM      1  O   HOH     1      -2.764 -33.609 -31.489  0.00  0.00    +0.000 OA
ENDROOT
TORSDOF 0
REMARK  Name = ../refined-set-2016/3own/3own_pocket.pdb
REMARK  277 active torsions:
REMARK  status: ('A' for Active; 'I' for Inactive)
REMARK    1  A    between atoms: _1  and  _3
REMARK    2  A    between atoms: _3  and  _4
REMARK    3  A    between atoms: _3  and  _6
REMARK    4  A    between atoms: _6  and  _7
REMARK    5  A    between atoms: _12  and  _13
REMARK    6  A    between atoms: _15  and  _17
REMARK    7  A    between atoms: _17  and  _18
REMARK    8  A    between atoms: _17  and  _20
REMARK    9  A    between atoms: _20  and  _21
REMARK   10  A    between atoms: _24  and  _26
REMARK   11  A    between atoms: _26  and  _27
REMARK   12  A    between atoms: _26  and  _29
REMARK   13  A    between atoms: _29  and  _30
REMARK   14  A    between atoms: _33  and  _35
REMARK   15  A    between atoms: _35  and  _36
REMARK   16  A    between atoms: _35  and  _38
REMARK   17  A    between atoms: _38  and  _39
REMARK   18  A    between atoms: _39  and  _40
REMARK   19  A    between atoms: _45  and  _47
REMARK   20  A    between atoms: _47  and  _48
REMARK   21  A    between atoms: _47  and  _50
REMARK   22  A    between atoms: _50  and  _51
REMARK   23  A    between atoms: _56  and  _57
REMARK   24  A    between atoms: _59  and  _61
REMARK   25  A    between atoms: _61  and  _62
REMARK   26  A    between atoms: _61  and  _64
REMARK   27  A    between atoms: _67  and  _69
REMARK   28  A    between atoms: _69  and  _70
REMARK   29  A    between atoms: _69  and  _72
REMARK   30  A    between atoms: _72  and  _73
REMARK   31  A    between atoms: _79  and  _81
REMARK   32  A    between atoms: _81  and  _82
REMARK   33  A    between atoms: _81  and  _84
REMARK   34  A    between atoms: _84  and  _85
REMARK   35  A    between atoms: _88  and  _90
REMARK   36  A    between atoms: _90  and  _91
REMARK   37  A    between atoms: _90  and  _93
REMARK   38  A    between atoms: _93  and  _94
REMARK   39  A    between atoms: _97  and  _99
REMARK   40  A    between atoms: _99  and  _100
REMARK   41  A    between atoms: _102  and  _104
REMARK   42  A    between atoms: _104  and  _105
REMARK   43  A    between atoms: _104  and  _107
REMARK   44  A    between atoms: _107  and  _108
REMARK   45  A    between atoms: _110  and  _112
REMARK   46  A    between atoms: _112  and  _113
REMARK   47  A    between atoms: _112  and  _115
REMARK   48  A    between atoms: _115  and  _116
REMARK   49  A    between atoms: _118  and  _120
REMARK   50  A    between atoms: _120  and  _121
REMARK   51  A    between atoms: _120  and  _123
REMARK   52  A    between atoms: _123  and  _124
REMARK   53  A    between atoms: _129  and  _131
REMARK   54  A    between atoms: _131  and  _132
REMARK   55  A    between atoms: _131  and  _134
REMARK   56  A    between atoms: _134  and  _135
REMARK   57  A    between atoms: _145  and  _147
REMARK   58  A    between atoms: _147  and  _148
REMARK   59  A    between atoms: _147  and  _150
REMARK   60  A    between atoms: _150  and  _151
REMARK   61  A    between atoms: _154  and  _156
REMARK   62  A    between atoms: _156  and  _157
REMARK   63  A    between atoms: _156  and  _159
REMARK   64  A    between atoms: _159  and  _160
REMARK   65  A    between atoms: _163  and  _165
REMARK   66  A    between atoms: _165  and  _166
REMARK   67  A    between atoms: _165  and  _168
REMARK   68  A    between atoms: _168  and  _169
REMARK   69  A    between atoms: _169  and  _170
REMARK   70  A    between atoms: _170  and  _171
REMARK   71  A    between atoms: _180  and  _182
REMARK   72  A    between atoms: _182  and  _183
REMARK   73  A    between atoms: _182  and  _185
REMARK   74  A    between atoms: _185  and  _186
REMARK   75  A    between atoms: _191  and  _192
REMARK   76  A    between atoms: _194  and  _196
REMARK   77  A    between atoms: _196  and  _197
REMARK   78  A    between atoms: _196  and  _199
REMARK   79  A    between atoms: _199  and  _200
REMARK   80  A    between atoms: _202  and  _204
REMARK   81  A    between atoms: _204  and  _205
REMARK   82  A    between atoms: _204  and  _207
REMARK   83  A    between atoms: _207  and  _208
REMARK   84  A    between atoms: _211  and  _213
REMARK   85  A    between atoms: _213  and  _214
REMARK   86  A    between atoms: _216  and  _218
REMARK   87  A    between atoms: _218  and  _219
REMARK   88  A    between atoms: _218  and  _221
REMARK   89  A    between atoms: _224  and  _226
REMARK   90  A    between atoms: _226  and  _227
REMARK   91  A    between atoms: _226  and  _229
REMARK   92  A    between atoms: _229  and  _230
REMARK   93  A    between atoms: _230  and  _231
REMARK   94  A    between atoms: _233  and  _235
REMARK   95  A    between atoms: _235  and  _236
REMARK   96  A    between atoms: _239  and  _241
REMARK   97  A    between atoms: _241  and  _242
REMARK   98  A    between atoms: _241  and  _244
REMARK   99  A    between atoms: _244  and  _245
REMARK  100  A    between atoms: _249  and  _250
REMARK  101  A    between atoms: _255  and  _257
REMARK  102  A    between atoms: _257  and  _258
REMARK  103  A    between atoms: _257  and  _260
REMARK  104  A    between atoms: _260  and  _261
REMARK  105  A    between atoms: _267  and  _269
REMARK  106  A    between atoms: _269  and  _270
REMARK  107  A    between atoms: _269  and  _272
REMARK  108  A    between atoms: _272  and  _273
REMARK  109  A    between atoms: _273  and  _274
REMARK  110  A    between atoms: _276  and  _278
REMARK  111  A    between atoms: _278  and  _279
REMARK  112  A    between atoms: _278  and  _281
REMARK  113  A    between atoms: _281  and  _282
REMARK  114  A    between atoms: _285  and  _287
REMARK  115  A    between atoms: _287  and  _288
REMARK  116  A    between atoms: _291  and  _293
REMARK  117  A    between atoms: _293  and  _294
REMARK  118  A    between atoms: _293  and  _296
REMARK  119  A    between atoms: _296  and  _297
REMARK  120  A    between atoms: _297  and  _298
REMARK  121  A    between atoms: _301  and  _303
REMARK  122  A    between atoms: _303  and  _304
REMARK  123  A    between atoms: _303  and  _306
REMARK  124  A    between atoms: _306  and  _307
REMARK  125  A    between atoms: _313  and  _315
REMARK  126  A    between atoms: _315  and  _316
REMARK  127  A    between atoms: _315  and  _318
REMARK  128  A    between atoms: _318  and  _319
REMARK  129  A    between atoms: _322  and  _324
REMARK  130  A    between atoms: _324  and  _325
REMARK  131  A    between atoms: _327  and  _329
REMARK  132  A    between atoms: _329  and  _330
REMARK  133  A    between atoms: _329  and  _332
REMARK  134  A    between atoms: _335  and  _337
REMARK  135  A    between atoms: _337  and  _338
REMARK  136  A    between atoms: _337  and  _340
REMARK  137  A    between atoms: _343  and  _345
REMARK  138  A    between atoms: _345  and  _346
REMARK  139  A    between atoms: _345  and  _348
REMARK  140  A    between atoms: _348  and  _349
REMARK  141  A    between atoms: _349  and  _350
REMARK  142  A    between atoms: _352  and  _354
REMARK  143  A    between atoms: _354  and  _355
REMARK  144  A    between atoms: _357  and  _359
REMARK  145  A    between atoms: _359  and  _360
REMARK  146  A    between atoms: _359  and  _362
REMARK  147  A    between atoms: _362  and  _363
REMARK  148  A    between atoms: _369  and  _371
REMARK  149  A    between atoms: _371  and  _372
REMARK  150  A    between atoms: _371  and  _374
REMARK  151  A    between atoms: _374  and  _375
REMARK  152  A    between atoms: _375  and  _376
REMARK  153  A    between atoms: _379  and  _381
REMARK  154  A    between atoms: _381  and  _382
REMARK  155  A    between atoms: _381  and  _384
REMARK  156  A    between atoms: _384  and  _385
REMARK  157  A    between atoms: _385  and  _386
REMARK  158  A    between atoms: _391  and  _393
REMARK  159  A    between atoms: _393  and  _394
REMARK  160  A    between atoms: _397  and  _399
REMARK  161  A    between atoms: _399  and  _400
REMARK  162  A    between atoms: _399  and  _402
REMARK  163  A    between atoms: _402  and  _403
REMARK  164  A    between atoms: _406  and  _408
REMARK  165  A    between atoms: _408  and  _409
REMARK  166  A    between atoms: _411  and  _413
REMARK  167  A    between atoms: _413  and  _414
REMARK  168  A    between atoms: _413  and  _416
REMARK  169  A    between atoms: _419  and  _421
REMARK  170  A    between atoms: _421  and  _422
REMARK  171  A    between atoms: _421  and  _424
REMARK  172  A    between atoms: _424  and  _425
REMARK  173  A    between atoms: _425  and  _426
REMARK  174  A    between atoms: _431  and  _433
REMARK  175  A    between atoms: _433  and  _434
REMARK  176  A    between atoms: _433  and  _436
REMARK  177  A    between atoms: _436  and  _437
REMARK  178  A    between atoms: _440  and  _442
REMARK  179  A    between atoms: _442  and  _443
REMARK  180  A    between atoms: _442  and  _445
REMARK  181  A    between atoms: _448  and  _450
REMARK  182  A    between atoms: _450  and  _451
REMARK  183  A    between atoms: _450  and  _453
REMARK  184  A    between atoms: _453  and  _454
REMARK  185  A    between atoms: _457  and  _459
REMARK  186  A    between atoms: _459  and  _460
REMARK  187  A    between atoms: _459  and  _462
REMARK  188  A    between atoms: _462  and  _463
REMARK  189  A    between atoms: _466  and  _468
REMARK  190  A    between atoms: _468  and  _469
REMARK  191  A    between atoms: _471  and  _473
REMARK  192  A    between atoms: _473  and  _474
REMARK  193  A    between atoms: _477  and  _479
REMARK  194  A    between atoms: _479  and  _480
REMARK  195  A    between atoms: _479  and  _482
REMARK  196  A    between atoms: _482  and  _483
REMARK  197  A    between atoms: _485  and  _487
REMARK  198  A    between atoms: _487  and  _488
REMARK  199  A    between atoms: _487  and  _490
REMARK  200  A    between atoms: _490  and  _491
REMARK  201  A    between atoms: _496  and  _497
REMARK  202  A    between atoms: _499  and  _501
REMARK  203  A    between atoms: _501  and  _502
REMARK  204  A    between atoms: _501  and  _504
REMARK  205  A    between atoms: _504  and  _505
REMARK  206  A    between atoms: _508  and  _510
REMARK  207  A    between atoms: _510  and  _511
REMARK  208  A    between atoms: _510  and  _513
REMARK  209  A    between atoms: _513  and  _514
REMARK  210  A    between atoms: _516  and  _518
REMARK  211  A    between atoms: _518  and  _519
REMARK  212  A    between atoms: _521  and  _523
REMARK  213  A    between atoms: _523  and  _524
REMARK  214  A    between atoms: _523  and  _526
REMARK  215  A    between atoms: _526  and  _527
REMARK  216  A    between atoms: _533  and  _535
REMARK  217  A    between atoms: _535  and  _536
REMARK  218  A    between atoms: _535  and  _538
REMARK  219  A    between atoms: _538  and  _539
REMARK  220  A    between atoms: _542  and  _544
REMARK  221  A    between atoms: _544  and  _545
REMARK  222  A    between atoms: _548  and  _550
REMARK  223  A    between atoms: _550  and  _551
REMARK  224  A    between atoms: _550  and  _553
REMARK  225  A    between atoms: _553  and  _554
REMARK  226  A    between atoms: _557  and  _559
REMARK  227  A    between atoms: _559  and  _560
REMARK  228  A    between atoms: _559  and  _562
REMARK  229  A    between atoms: _562  and  _563
REMARK  230  A    between atoms: _568  and  _570
REMARK  231  A    between atoms: _570  and  _571
REMARK  232  A    between atoms: _574  and  _576
REMARK  233  A    between atoms: _576  and  _577
REMARK  234  A    between atoms: _576  and  _579
REMARK  235  A    between atoms: _579  and  _580
REMARK  236  A    between atoms: _580  and  _581
REMARK  237  A    between atoms: _583  and  _585
REMARK  238  A    between atoms: _585  and  _586
REMARK  239  A    between atoms: _585  and  _588
REMARK  240  A    between atoms: _588  and  _589
REMARK  241  A    between atoms: _592  and  _594
REMARK  242  A    between atoms: _594  and  _595
REMARK  243  A    between atoms: _594  and  _597
REMARK  244  A    between atoms: _597  and  _598
REMARK  245  A    between atoms: _602  and  _603
REMARK  246  A    between atoms: _608  and  _610
REMARK  247  A    between atoms: _610  and  _611
REMARK  248  A    between atoms: _610  and  _613
REMARK  249  A    between atoms: _613  and  _614
REMARK  250  A    between atoms: _617  and  _619
REMARK  251  A    between atoms: _619  and  _620
REMARK  252  A    between atoms: _622  and  _624
REMARK  253  A    between atoms: _624  and  _625
REMARK  254  A    between atoms: _624  and  _627
REMARK  255  A    between atoms: _627  and  _628
REMARK  256  A    between atoms: _631  and  _633
REMARK  257  A    between atoms: _633  and  _634
REMARK  258  A    between atoms: _633  and  _636
REMARK  259  A    between atoms: _636  and  _637
REMARK  260  A    between atoms: _647  and  _649
REMARK  261  A    between atoms: _649  and  _650
REMARK  262  A    between atoms: _653  and  _655
REMARK  263  A    between atoms: _655  and  _656
REMARK  264  A    between atoms: _655  and  _658
REMARK  265  A    between atoms: _658  and  _659
REMARK  266  A    between atoms: _662  and  _664
REMARK  267  A    between atoms: _664  and  _665
REMARK  268  A    between atoms: _667  and  _669
REMARK  269  A    between atoms: _669  and  _670
REMARK  270  A    between atoms: _673  and  _675
REMARK  271  A    between atoms: _675  and  _676
REMARK  272  A    between atoms: _675  and  _678
REMARK  273  A    between atoms: _678  and  _679
REMARK  274  A    between atoms: _682  and  _684
REMARK  275  A    between atoms: _684  and  _685
REMARK  276  A    between atoms: _684  and  _687
REMARK  277  A    between atoms: _687  and  _688
REMARK                            x       y       z     vdW  Elec       q    Type
REMARK                         _______ _______ _______ _____ _____    ______ ____
ROOT
ATOM      1  O   HOH     1     -17.236 -36.272 -41.906  0.00  0.00    +0.000 OA
ENDROOT
TORSDOF 0
REMARK  Name = ../refined-set-2016/3own/3own_pocket.pdb
REMARK  277 active torsions:
REMARK  status: ('A' for Active; 'I' for Inactive)
REMARK    1  A    between atoms: _1  and  _3
REMARK    2  A    between atoms: _3  and  _4
REMARK    3  A    between atoms: _3  and  _6
REMARK    4  A    between atoms: _6  and  _7
REMARK    5  A    between atoms: _12  and  _13
REMARK    6  A    between atoms: _15  and  _17
REMARK    7  A    between atoms: _17  and  _18
REMARK    8  A    between atoms: _17  and  _20
REMARK    9  A    between atoms: _20  and  _21
REMARK   10  A    between atoms: _24  and  _26
REMARK   11  A    between atoms: _26  and  _27
REMARK   12  A    between atoms: _26  and  _29
REMARK   13  A    between atoms: _29  and  _30
REMARK   14  A    between atoms: _33  and  _35
REMARK   15  A    between atoms: _35  and  _36
REMARK   16  A    between atoms: _35  and  _38
REMARK   17  A    between atoms: _38  and  _39
REMARK   18  A    between atoms: _39  and  _40
REMARK   19  A    between atoms: _45  and  _47
REMARK   20  A    between atoms: _47  and  _48
REMARK   21  A    between atoms: _47  and  _50
REMARK   22  A    between atoms: _50  and  _51
REMARK   23  A    between atoms: _56  and  _57
REMARK   24  A    between atoms: _59  and  _61
REMARK   25  A    between atoms: _61  and  _62
REMARK   26  A    between atoms: _61  and  _64
REMARK   27  A    between atoms: _67  and  _69
REMARK   28  A    between atoms: _69  and  _70
REMARK   29  A    between atoms: _69  and  _72
REMARK   30  A    between atoms: _72  and  _73
REMARK   31  A    between atoms: _79  and  _81
REMARK   32  A    between atoms: _81  and  _82
REMARK   33  A    between atoms: _81  and  _84
REMARK   34  A    between atoms: _84  and  _85
REMARK   35  A    between atoms: _88  and  _90
REMARK   36  A    between atoms: _90  and  _91
REMARK   37  A    between atoms: _90  and  _93
REMARK   38  A    between atoms: _93  and  _94
REMARK   39  A    between atoms: _97  and  _99
REMARK   40  A    between atoms: _99  and  _100
REMARK   41  A    between atoms: _102  and  _104
REMARK   42  A    between atoms: _104  and  _105
REMARK   43  A    between atoms: _104  and  _107
REMARK   44  A    between atoms: _107  and  _108
REMARK   45  A    between atoms: _110  and  _112
REMARK   46  A    between atoms: _112  and  _113
REMARK   47  A    between atoms: _112  and  _115
REMARK   48  A    between atoms: _115  and  _116
REMARK   49  A    between atoms: _118  and  _120
REMARK   50  A    between atoms: _120  and  _121
REMARK   51  A    between atoms: _120  and  _123
REMARK   52  A    between atoms: _123  and  _124
REMARK   53  A    between atoms: _129  and  _131
REMARK   54  A    between atoms: _131  and  _132
REMARK   55  A    between atoms: _131  and  _134
REMARK   56  A    between atoms: _134  and  _135
REMARK   57  A    between atoms: _145  and  _147
REMARK   58  A    between atoms: _147  and  _148
REMARK   59  A    between atoms: _147  and  _150
REMARK   60  A    between atoms: _150  and  _151
REMARK   61  A    between atoms: _154  and  _156
REMARK   62  A    between atoms: _156  and  _157
REMARK   63  A    between atoms: _156  and  _159
REMARK   64  A    between atoms: _159  and  _160
REMARK   65  A    between atoms: _163  and  _165
REMARK   66  A    between atoms: _165  and  _166
REMARK   67  A    between atoms: _165  and  _168
REMARK   68  A    between atoms: _168  and  _169
REMARK   69  A    between atoms: _169  and  _170
REMARK   70  A    between atoms: _170  and  _171
REMARK   71  A    between atoms: _180  and  _182
REMARK   72  A    between atoms: _182  and  _183
REMARK   73  A    between atoms: _182  and  _185
REMARK   74  A    between atoms: _185  and  _186
REMARK   75  A    between atoms: _191  and  _192
REMARK   76  A    between atoms: _194  and  _196
REMARK   77  A    between atoms: _196  and  _197
REMARK   78  A    between atoms: _196  and  _199
REMARK   79  A    between atoms: _199  and  _200
REMARK   80  A    between atoms: _202  and  _204
REMARK   81  A    between atoms: _204  and  _205
REMARK   82  A    between atoms: _204  and  _207
REMARK   83  A    between atoms: _207  and  _208
REMARK   84  A    between atoms: _211  and  _213
REMARK   85  A    between atoms: _213  and  _214
REMARK   86  A    between atoms: _216  and  _218
REMARK   87  A    between atoms: _218  and  _219
REMARK   88  A    between atoms: _218  and  _221
REMARK   89  A    between atoms: _224  and  _226
REMARK   90  A    between atoms: _226  and  _227
REMARK   91  A    between atoms: _226  and  _229
REMARK   92  A    between atoms: _229  and  _230
REMARK   93  A    between atoms: _230  and  _231
REMARK   94  A    between atoms: _233  and  _235
REMARK   95  A    between atoms: _235  and  _236
REMARK   96  A    between atoms: _239  and  _241
REMARK   97  A    between atoms: _241  and  _242
REMARK   98  A    between atoms: _241  and  _244
REMARK   99  A    between atoms: _244  and  _245
REMARK  100  A    between atoms: _249  and  _250
REMARK  101  A    between atoms: _255  and  _257
REMARK  102  A    between atoms: _257  and  _258
REMARK  103  A    between atoms: _257  and  _260
REMARK  104  A    between atoms: _260  and  _261
REMARK  105  A    between atoms: _267  and  _269
REMARK  106  A    between atoms: _269  and  _270
REMARK  107  A    between atoms: _269  and  _272
REMARK  108  A    between atoms: _272  and  _273
REMARK  109  A    between atoms: _273  and  _274
REMARK  110  A    between atoms: _276  and  _278
REMARK  111  A    between atoms: _278  and  _279
REMARK  112  A    between atoms: _278  and  _281
REMARK  113  A    between atoms: _281  and  _282
REMARK  114  A    between atoms: _285  and  _287
REMARK  115  A    between atoms: _287  and  _288
REMARK  116  A    between atoms: _291  and  _293
REMARK  117  A    between atoms: _293  and  _294
REMARK  118  A    between atoms: _293  and  _296
REMARK  119  A    between atoms: _296  and  _297
REMARK  120  A    between atoms: _297  and  _298
REMARK  121  A    between atoms: _301  and  _303
REMARK  122  A    between atoms: _303  and  _304
REMARK  123  A    between atoms: _303  and  _306
REMARK  124  A    between atoms: _306  and  _307
REMARK  125  A    between atoms: _313  and  _315
REMARK  126  A    between atoms: _315  and  _316
REMARK  127  A    between atoms: _315  and  _318
REMARK  128  A    between atoms: _318  and  _319
REMARK  129  A    between atoms: _322  and  _324
REMARK  130  A    between atoms: _324  and  _325
REMARK  131  A    between atoms: _327  and  _329
REMARK  132  A    between atoms: _329  and  _330
REMARK  133  A    between atoms: _329  and  _332
REMARK  134  A    between atoms: _335  and  _337
REMARK  135  A    between atoms: _337  and  _338
REMARK  136  A    between atoms: _337  and  _340
REMARK  137  A    between atoms: _343  and  _345
REMARK  138  A    between atoms: _345  and  _346
REMARK  139  A    between atoms: _345  and  _348
REMARK  140  A    between atoms: _348  and  _349
REMARK  141  A    between atoms: _349  and  _350
REMARK  142  A    between atoms: _352  and  _354
REMARK  143  A    between atoms: _354  and  _355
REMARK  144  A    between atoms: _357  and  _359
REMARK  145  A    between atoms: _359  and  _360
REMARK  146  A    between atoms: _359  and  _362
REMARK  147  A    between atoms: _362  and  _363
REMARK  148  A    between atoms: _369  and  _371
REMARK  149  A    between atoms: _371  and  _372
REMARK  150  A    between atoms: _371  and  _374
REMARK  151  A    between atoms: _374  and  _375
REMARK  152  A    between atoms: _375  and  _376
REMARK  153  A    between atoms: _379  and  _381
REMARK  154  A    between atoms: _381  and  _382
REMARK  155  A    between atoms: _381  and  _384
REMARK  156  A    between atoms: _384  and  _385
REMARK  157  A    between atoms: _385  and  _386
REMARK  158  A    between atoms: _391  and  _393
REMARK  159  A    between atoms: _393  and  _394
REMARK  160  A    between atoms: _397  and  _399
REMARK  161  A    between atoms: _399  and  _400
REMARK  162  A    between atoms: _399  and  _402
REMARK  163  A    between atoms: _402  and  _403
REMARK  164  A    between atoms: _406  and  _408
REMARK  165  A    between atoms: _408  and  _409
REMARK  166  A    between atoms: _411  and  _413
REMARK  167  A    between atoms: _413  and  _414
REMARK  168  A    between atoms: _413  and  _416
REMARK  169  A    between atoms: _419  and  _421
REMARK  170  A    between atoms: _421  and  _422
REMARK  171  A    between atoms: _421  and  _424
REMARK  172  A    between atoms: _424  and  _425
REMARK  173  A    between atoms: _425  and  _426
REMARK  174  A    between atoms: _431  and  _433
REMARK  175  A    between atoms: _433  and  _434
REMARK  176  A    between atoms: _433  and  _436
REMARK  177  A    between atoms: _436  and  _437
REMARK  178  A    between atoms: _440  and  _442
REMARK  179  A    between atoms: _442  and  _443
REMARK  180  A    between atoms: _442  and  _445
REMARK  181  A    between atoms: _448  and  _450
REMARK  182  A    between atoms: _450  and  _451
REMARK  183  A    between atoms: _450  and  _453
REMARK  184  A    between atoms: _453  and  _454
REMARK  185  A    between atoms: _457  and  _459
REMARK  186  A    between atoms: _459  and  _460
REMARK  187  A    between atoms: _459  and  _462
REMARK  188  A    between atoms: _462  and  _463
REMARK  189  A    between atoms: _466  and  _468
REMARK  190  A    between atoms: _468  and  _469
REMARK  191  A    between atoms: _471  and  _473
REMARK  192  A    between atoms: _473  and  _474
REMARK  193  A    between atoms: _477  and  _479
REMARK  194  A    between atoms: _479  and  _480
REMARK  195  A    between atoms: _479  and  _482
REMARK  196  A    between atoms: _482  and  _483
REMARK  197  A    between atoms: _485  and  _487
REMARK  198  A    between atoms: _487  and  _488
REMARK  199  A    between atoms: _487  and  _490
REMARK  200  A    between atoms: _490  and  _491
REMARK  201  A    between atoms: _496  and  _497
REMARK  202  A    between atoms: _499  and  _501
REMARK  203  A    between atoms: _501  and  _502
REMARK  204  A    between atoms: _501  and  _504
REMARK  205  A    between atoms: _504  and  _505
REMARK  206  A    between atoms: _508  and  _510
REMARK  207  A    between atoms: _510  and  _511
REMARK  208  A    between atoms: _510  and  _513
REMARK  209  A    between atoms: _513  and  _514
REMARK  210  A    between atoms: _516  and  _518
REMARK  211  A    between atoms: _518  and  _519
REMARK  212  A    between atoms: _521  and  _523
REMARK  213  A    between atoms: _523  and  _524
REMARK  214  A    between atoms: _523  and  _526
REMARK  215  A    between atoms: _526  and  _527
REMARK  216  A    between atoms: _533  and  _535
REMARK  217  A    between atoms: _535  and  _536
REMARK  218  A    between atoms: _535  and  _538
REMARK  219  A    between atoms: _538  and  _539
REMARK  220  A    between atoms: _542  and  _544
REMARK  221  A    between atoms: _544  and  _545
REMARK  222  A    between atoms: _548  and  _550
REMARK  223  A    between atoms: _550  and  _551
REMARK  224  A    between atoms: _550  and  _553
REMARK  225  A    between atoms: _553  and  _554
REMARK  226  A    between atoms: _557  and  _559
REMARK  227  A    between atoms: _559  and  _560
REMARK  228  A    between atoms: _559  and  _562
REMARK  229  A    between atoms: _562  and  _563
REMARK  230  A    between atoms: _568  and  _570
REMARK  231  A    between atoms: _570  and  _571
REMARK  232  A    between atoms: _574  and  _576
REMARK  233  A    between atoms: _576  and  _577
REMARK  234  A    between atoms: _576  and  _579
REMARK  235  A    between atoms: _579  and  _580
REMARK  236  A    between atoms: _580  and  _581
REMARK  237  A    between atoms: _583  and  _585
REMARK  238  A    between atoms: _585  and  _586
REMARK  239  A    between atoms: _585  and  _588
REMARK  240  A    between atoms: _588  and  _589
REMARK  241  A    between atoms: _592  and  _594
REMARK  242  A    between atoms: _594  and  _595
REMARK  243  A    between atoms: _594  and  _597
REMARK  244  A    between atoms: _597  and  _598
REMARK  245  A    between atoms: _602  and  _603
REMARK  246  A    between atoms: _608  and  _610
REMARK  247  A    between atoms: _610  and  _611
REMARK  248  A    between atoms: _610  and  _613
REMARK  249  A    between atoms: _613  and  _614
REMARK  250  A    between atoms: _617  and  _619
REMARK  251  A    between atoms: _619  and  _620
REMARK  252  A    between atoms: _622  and  _624
REMARK  253  A    between atoms: _624  and  _625
REMARK  254  A    between atoms: _624  and  _627
REMARK  255  A    between atoms: _627  and  _628
REMARK  256  A    between atoms: _631  and  _633
REMARK  257  A    between atoms: _633  and  _634
REMARK  258  A    between atoms: _633  and  _636
REMARK  259  A    between atoms: _636  and  _637
REMARK  260  A    between atoms: _647  and  _649
REMARK  261  A    between atoms: _649  and  _650
REMARK  262  A    between atoms: _653  and  _655
REMARK  263  A    between atoms: _655  and  _656
REMARK  264  A    between atoms: _655  and  _658
REMARK  265  A    between atoms: _658  and  _659
REMARK  266  A    between atoms: _662  and  _664
REMARK  267  A    between atoms: _664  and  _665
REMARK  268  A    between atoms: _667  and  _669
REMARK  269  A    between atoms: _669  and  _670
REMARK  270  A    between atoms: _673  and  _675
REMARK  271  A    between atoms: _675  and  _676
REMARK  272  A    between atoms: _675  and  _678
REMARK  273  A    between atoms: _678  and  _679
REMARK  274  A    between atoms: _682  and  _684
REMARK  275  A    between atoms: _684  and  _685
REMARK  276  A    between atoms: _684  and  _687
REMARK  277  A    between atoms: _687  and  _688
REMARK                            x       y       z     vdW  Elec       q    Type
REMARK                         _______ _______ _______ _____ _____    ______ ____
ROOT
ATOM      1  O   HOH     1      -6.533 -30.161 -23.536  0.00  0.00    +0.000 OA
ENDROOT
TORSDOF 0
REMARK  Name = ../refined-set-2016/3own/3own_pocket.pdb
REMARK  277 active torsions:
REMARK  status: ('A' for Active; 'I' for Inactive)
REMARK    1  A    between atoms: _1  and  _3
REMARK    2  A    between atoms: _3  and  _4
REMARK    3  A    between atoms: _3  and  _6
REMARK    4  A    between atoms: _6  and  _7
REMARK    5  A    between atoms: _12  and  _13
REMARK    6  A    between atoms: _15  and  _17
REMARK    7  A    between atoms: _17  and  _18
REMARK    8  A    between atoms: _17  and  _20
REMARK    9  A    between atoms: _20  and  _21
REMARK   10  A    between atoms: _24  and  _26
REMARK   11  A    between atoms: _26  and  _27
REMARK   12  A    between atoms: _26  and  _29
REMARK   13  A    between atoms: _29  and  _30
REMARK   14  A    between atoms: _33  and  _35
REMARK   15  A    between atoms: _35  and  _36
REMARK   16  A    between atoms: _35  and  _38
REMARK   17  A    between atoms: _38  and  _39
REMARK   18  A    between atoms: _39  and  _40
REMARK   19  A    between atoms: _45  and  _47
REMARK   20  A    between atoms: _47  and  _48
REMARK   21  A    between atoms: _47  and  _50
REMARK   22  A    between atoms: _50  and  _51
REMARK   23  A    between atoms: _56  and  _57
REMARK   24  A    between atoms: _59  and  _61
REMARK   25  A    between atoms: _61  and  _62
REMARK   26  A    between atoms: _61  and  _64
REMARK   27  A    between atoms: _67  and  _69
REMARK   28  A    between atoms: _69  and  _70
REMARK   29  A    between atoms: _69  and  _72
REMARK   30  A    between atoms: _72  and  _73
REMARK   31  A    between atoms: _79  and  _81
REMARK   32  A    between atoms: _81  and  _82
REMARK   33  A    between atoms: _81  and  _84
REMARK   34  A    between atoms: _84  and  _85
REMARK   35  A    between atoms: _88  and  _90
REMARK   36  A    between atoms: _90  and  _91
REMARK   37  A    between atoms: _90  and  _93
REMARK   38  A    between atoms: _93  and  _94
REMARK   39  A    between atoms: _97  and  _99
REMARK   40  A    between atoms: _99  and  _100
REMARK   41  A    between atoms: _102  and  _104
REMARK   42  A    between atoms: _104  and  _105
REMARK   43  A    between atoms: _104  and  _107
REMARK   44  A    between atoms: _107  and  _108
REMARK   45  A    between atoms: _110  and  _112
REMARK   46  A    between atoms: _112  and  _113
REMARK   47  A    between atoms: _112  and  _115
REMARK   48  A    between atoms: _115  and  _116
REMARK   49  A    between atoms: _118  and  _120
REMARK   50  A    between atoms: _120  and  _121
REMARK   51  A    between atoms: _120  and  _123
REMARK   52  A    between atoms: _123  and  _124
REMARK   53  A    between atoms: _129  and  _131
REMARK   54  A    between atoms: _131  and  _132
REMARK   55  A    between atoms: _131  and  _134
REMARK   56  A    between atoms: _134  and  _135
REMARK   57  A    between atoms: _145  and  _147
REMARK   58  A    between atoms: _147  and  _148
REMARK   59  A    between atoms: _147  and  _150
REMARK   60  A    between atoms: _150  and  _151
REMARK   61  A    between atoms: _154  and  _156
REMARK   62  A    between atoms: _156  and  _157
REMARK   63  A    between atoms: _156  and  _159
REMARK   64  A    between atoms: _159  and  _160
REMARK   65  A    between atoms: _163  and  _165
REMARK   66  A    between atoms: _165  and  _166
REMARK   67  A    between atoms: _165  and  _168
REMARK   68  A    between atoms: _168  and  _169
REMARK   69  A    between atoms: _169  and  _170
REMARK   70  A    between atoms: _170  and  _171
REMARK   71  A    between atoms: _180  and  _182
REMARK   72  A    between atoms: _182  and  _183
REMARK   73  A    between atoms: _182  and  _185
REMARK   74  A    between atoms: _185  and  _186
REMARK   75  A    between atoms: _191  and  _192
REMARK   76  A    between atoms: _194  and  _196
REMARK   77  A    between atoms: _196  and  _197
REMARK   78  A    between atoms: _196  and  _199
REMARK   79  A    between atoms: _199  and  _200
REMARK   80  A    between atoms: _202  and  _204
REMARK   81  A    between atoms: _204  and  _205
REMARK   82  A    between atoms: _204  and  _207
REMARK   83  A    between atoms: _207  and  _208
REMARK   84  A    between atoms: _211  and  _213
REMARK   85  A    between atoms: _213  and  _214
REMARK   86  A    between atoms: _216  and  _218
REMARK   87  A    between atoms: _218  and  _219
REMARK   88  A    between atoms: _218  and  _221
REMARK   89  A    between atoms: _224  and  _226
REMARK   90  A    between atoms: _226  and  _227
REMARK   91  A    between atoms: _226  and  _229
REMARK   92  A    between atoms: _229  and  _230
REMARK   93  A    between atoms: _230  and  _231
REMARK   94  A    between atoms: _233  and  _235
REMARK   95  A    between atoms: _235  and  _236
REMARK   96  A    between atoms: _239  and  _241
REMARK   97  A    between atoms: _241  and  _242
REMARK   98  A    between atoms: _241  and  _244
REMARK   99  A    between atoms: _244  and  _245
REMARK  100  A    between atoms: _249  and  _250
REMARK  101  A    between atoms: _255  and  _257
REMARK  102  A    between atoms: _257  and  _258
REMARK  103  A    between atoms: _257  and  _260
REMARK  104  A    between atoms: _260  and  _261
REMARK  105  A    between atoms: _267  and  _269
REMARK  106  A    between atoms: _269  and  _270
REMARK  107  A    between atoms: _269  and  _272
REMARK  108  A    between atoms: _272  and  _273
REMARK  109  A    between atoms: _273  and  _274
REMARK  110  A    between atoms: _276  and  _278
REMARK  111  A    between atoms: _278  and  _279
REMARK  112  A    between atoms: _278  and  _281
REMARK  113  A    between atoms: _281  and  _282
REMARK  114  A    between atoms: _285  and  _287
REMARK  115  A    between atoms: _287  and  _288
REMARK  116  A    between atoms: _291  and  _293
REMARK  117  A    between atoms: _293  and  _294
REMARK  118  A    between atoms: _293  and  _296
REMARK  119  A    between atoms: _296  and  _297
REMARK  120  A    between atoms: _297  and  _298
REMARK  121  A    between atoms: _301  and  _303
REMARK  122  A    between atoms: _303  and  _304
REMARK  123  A    between atoms: _303  and  _306
REMARK  124  A    between atoms: _306  and  _307
REMARK  125  A    between atoms: _313  and  _315
REMARK  126  A    between atoms: _315  and  _316
REMARK  127  A    between atoms: _315  and  _318
REMARK  128  A    between atoms: _318  and  _319
REMARK  129  A    between atoms: _322  and  _324
REMARK  130  A    between atoms: _324  and  _325
REMARK  131  A    between atoms: _327  and  _329
REMARK  132  A    between atoms: _329  and  _330
REMARK  133  A    between atoms: _329  and  _332
REMARK  134  A    between atoms: _335  and  _337
REMARK  135  A    between atoms: _337  and  _338
REMARK  136  A    between atoms: _337  and  _340
REMARK  137  A    between atoms: _343  and  _345
REMARK  138  A    between atoms: _345  and  _346
REMARK  139  A    between atoms: _345  and  _348
REMARK  140  A    between atoms: _348  and  _349
REMARK  141  A    between atoms: _349  and  _350
REMARK  142  A    between atoms: _352  and  _354
REMARK  143  A    between atoms: _354  and  _355
REMARK  144  A    between atoms: _357  and  _359
REMARK  145  A    between atoms: _359  and  _360
REMARK  146  A    between atoms: _359  and  _362
REMARK  147  A    between atoms: _362  and  _363
REMARK  148  A    between atoms: _369  and  _371
REMARK  149  A    between atoms: _371  and  _372
REMARK  150  A    between atoms: _371  and  _374
REMARK  151  A    between atoms: _374  and  _375
REMARK  152  A    between atoms: _375  and  _376
REMARK  153  A    between atoms: _379  and  _381
REMARK  154  A    between atoms: _381  and  _382
REMARK  155  A    between atoms: _381  and  _384
REMARK  156  A    between atoms: _384  and  _385
REMARK  157  A    between atoms: _385  and  _386
REMARK  158  A    between atoms: _391  and  _393
REMARK  159  A    between atoms: _393  and  _394
REMARK  160  A    between atoms: _397  and  _399
REMARK  161  A    between atoms: _399  and  _400
REMARK  162  A    between atoms: _399  and  _402
REMARK  163  A    between atoms: _402  and  _403
REMARK  164  A    between atoms: _406  and  _408
REMARK  165  A    between atoms: _408  and  _409
REMARK  166  A    between atoms: _411  and  _413
REMARK  167  A    between atoms: _413  and  _414
REMARK  168  A    between atoms: _413  and  _416
REMARK  169  A    between atoms: _419  and  _421
REMARK  170  A    between atoms: _421  and  _422
REMARK  171  A    between atoms: _421  and  _424
REMARK  172  A    between atoms: _424  and  _425
REMARK  173  A    between atoms: _425  and  _426
REMARK  174  A    between atoms: _431  and  _433
REMARK  175  A    between atoms: _433  and  _434
REMARK  176  A    between atoms: _433  and  _436
REMARK  177  A    between atoms: _436  and  _437
REMARK  178  A    between atoms: _440  and  _442
REMARK  179  A    between atoms: _442  and  _443
REMARK  180  A    between atoms: _442  and  _445
REMARK  181  A    between atoms: _448  and  _450
REMARK  182  A    between atoms: _450  and  _451
REMARK  183  A    between atoms: _450  and  _453
REMARK  184  A    between atoms: _453  and  _454
REMARK  185  A    between atoms: _457  and  _459
REMARK  186  A    between atoms: _459  and  _460
REMARK  187  A    between atoms: _459  and  _462
REMARK  188  A    between atoms: _462  and  _463
REMARK  189  A    between atoms: _466  and  _468
REMARK  190  A    between atoms: _468  and  _469
REMARK  191  A    between atoms: _471  and  _473
REMARK  192  A    between atoms: _473  and  _474
REMARK  193  A    between atoms: _477  and  _479
REMARK  194  A    between atoms: _479  and  _480
REMARK  195  A    between atoms: _479  and  _482
REMARK  196  A    between atoms: _482  and  _483
REMARK  197  A    between atoms: _485  and  _487
REMARK  198  A    between atoms: _487  and  _488
REMARK  199  A    between atoms: _487  and  _490
REMARK  200  A    between atoms: _490  and  _491
REMARK  201  A    between atoms: _496  and  _497
REMARK  202  A    between atoms: _499  and  _501
REMARK  203  A    between atoms: _501  and  _502
REMARK  204  A    between atoms: _501  and  _504
REMARK  205  A    between atoms: _504  and  _505
REMARK  206  A    between atoms: _508  and  _510
REMARK  207  A    between atoms: _510  and  _511
REMARK  208  A    between atoms: _510  and  _513
REMARK  209  A    between atoms: _513  and  _514
REMARK  210  A    between atoms: _516  and  _518
REMARK  211  A    between atoms: _518  and  _519
REMARK  212  A    between atoms: _521  and  _523
REMARK  213  A    between atoms: _523  and  _524
REMARK  214  A    between atoms: _523  and  _526
REMARK  215  A    between atoms: _526  and  _527
REMARK  216  A    between atoms: _533  and  _535
REMARK  217  A    between atoms: _535  and  _536
REMARK  218  A    between atoms: _535  and  _538
REMARK  219  A    between atoms: _538  and  _539
REMARK  220  A    between atoms: _542  and  _544
REMARK  221  A    between atoms: _544  and  _545
REMARK  222  A    between atoms: _548  and  _550
REMARK  223  A    between atoms: _550  and  _551
REMARK  224  A    between atoms: _550  and  _553
REMARK  225  A    between atoms: _553  and  _554
REMARK  226  A    between atoms: _557  and  _559
REMARK  227  A    between atoms: _559  and  _560
REMARK  228  A    between atoms: _559  and  _562
REMARK  229  A    between atoms: _562  and  _563
REMARK  230  A    between atoms: _568  and  _570
REMARK  231  A    between atoms: _570  and  _571
REMARK  232  A    between atoms: _574  and  _576
REMARK  233  A    between atoms: _576  and  _577
REMARK  234  A    between atoms: _576  and  _579
REMARK  235  A    between atoms: _579  and  _580
REMARK  236  A    between atoms: _580  and  _581
REMARK  237  A    between atoms: _583  and  _585
REMARK  238  A    between atoms: _585  and  _586
REMARK  239  A    between atoms: _585  and  _588
REMARK  240  A    between atoms: _588  and  _589
REMARK  241  A    between atoms: _592  and  _594
REMARK  242  A    between atoms: _594  and  _595
REMARK  243  A    between atoms: _594  and  _597
REMARK  244  A    between atoms: _597  and  _598
REMARK  245  A    between atoms: _602  and  _603
REMARK  246  A    between atoms: _608  and  _610
REMARK  247  A    between atoms: _610  and  _611
REMARK  248  A    between atoms: _610  and  _613
REMARK  249  A    between atoms: _613  and  _614
REMARK  250  A    between atoms: _617  and  _619
REMARK  251  A    between atoms: _619  and  _620
REMARK  252  A    between atoms: _622  and  _624
REMARK  253  A    between atoms: _624  and  _625
REMARK  254  A    between atoms: _624  and  _627
REMARK  255  A    between atoms: _627  and  _628
REMARK  256  A    between atoms: _631  and  _633
REMARK  257  A    between atoms: _633  and  _634
REMARK  258  A    between atoms: _633  and  _636
REMARK  259  A    between atoms: _636  and  _637
REMARK  260  A    between atoms: _647  and  _649
REMARK  261  A    between atoms: _649  and  _650
REMARK  262  A    between atoms: _653  and  _655
REMARK  263  A    between atoms: _655  and  _656
REMARK  264  A    between atoms: _655  and  _658
REMARK  265  A    between atoms: _658  and  _659
REMARK  266  A    between atoms: _662  and  _664
REMARK  267  A    between atoms: _664  and  _665
REMARK  268  A    between atoms: _667  and  _669
REMARK  269  A    between atoms: _669  and  _670
REMARK  270  A    between atoms: _673  and  _675
REMARK  271  A    between atoms: _675  and  _676
REMARK  272  A    between atoms: _675  and  _678
REMARK  273  A    between atoms: _678  and  _679
REMARK  274  A    between atoms: _682  and  _684
REMARK  275  A    between atoms: _684  and  _685
REMARK  276  A    between atoms: _684  and  _687
REMARK  277  A    between atoms: _687  and  _688
REMARK                            x       y       z     vdW  Elec       q    Type
REMARK                         _______ _______ _______ _____ _____    ______ ____
ROOT
ATOM      1  O   HOH     1      -4.264 -25.811 -22.398  0.00  0.00    +0.000 OA
ENDROOT
TORSDOF 0
REMARK  Name = ../refined-set-2016/3own/3own_pocket.pdb
REMARK  277 active torsions:
REMARK  status: ('A' for Active; 'I' for Inactive)
REMARK    1  A    between atoms: _1  and  _3
REMARK    2  A    between atoms: _3  and  _4
REMARK    3  A    between atoms: _3  and  _6
REMARK    4  A    between atoms: _6  and  _7
REMARK    5  A    between atoms: _12  and  _13
REMARK    6  A    between atoms: _15  and  _17
REMARK    7  A    between atoms: _17  and  _18
REMARK    8  A    between atoms: _17  and  _20
REMARK    9  A    between atoms: _20  and  _21
REMARK   10  A    between atoms: _24  and  _26
REMARK   11  A    between atoms: _26  and  _27
REMARK   12  A    between atoms: _26  and  _29
REMARK   13  A    between atoms: _29  and  _30
REMARK   14  A    between atoms: _33  and  _35
REMARK   15  A    between atoms: _35  and  _36
REMARK   16  A    between atoms: _35  and  _38
REMARK   17  A    between atoms: _38  and  _39
REMARK   18  A    between atoms: _39  and  _40
REMARK   19  A    between atoms: _45  and  _47
REMARK   20  A    between atoms: _47  and  _48
REMARK   21  A    between atoms: _47  and  _50
REMARK   22  A    between atoms: _50  and  _51
REMARK   23  A    between atoms: _56  and  _57
REMARK   24  A    between atoms: _59  and  _61
REMARK   25  A    between atoms: _61  and  _62
REMARK   26  A    between atoms: _61  and  _64
REMARK   27  A    between atoms: _67  and  _69
REMARK   28  A    between atoms: _69  and  _70
REMARK   29  A    between atoms: _69  and  _72
REMARK   30  A    between atoms: _72  and  _73
REMARK   31  A    between atoms: _79  and  _81
REMARK   32  A    between atoms: _81  and  _82
REMARK   33  A    between atoms: _81  and  _84
REMARK   34  A    between atoms: _84  and  _85
REMARK   35  A    between atoms: _88  and  _90
REMARK   36  A    between atoms: _90  and  _91
REMARK   37  A    between atoms: _90  and  _93
REMARK   38  A    between atoms: _93  and  _94
REMARK   39  A    between atoms: _97  and  _99
REMARK   40  A    between atoms: _99  and  _100
REMARK   41  A    between atoms: _102  and  _104
REMARK   42  A    between atoms: _104  and  _105
REMARK   43  A    between atoms: _104  and  _107
REMARK   44  A    between atoms: _107  and  _108
REMARK   45  A    between atoms: _110  and  _112
REMARK   46  A    between atoms: _112  and  _113
REMARK   47  A    between atoms: _112  and  _115
REMARK   48  A    between atoms: _115  and  _116
REMARK   49  A    between atoms: _118  and  _120
REMARK   50  A    between atoms: _120  and  _121
REMARK   51  A    between atoms: _120  and  _123
REMARK   52  A    between atoms: _123  and  _124
REMARK   53  A    between atoms: _129  and  _131
REMARK   54  A    between atoms: _131  and  _132
REMARK   55  A    between atoms: _131  and  _134
REMARK   56  A    between atoms: _134  and  _135
REMARK   57  A    between atoms: _145  and  _147
REMARK   58  A    between atoms: _147  and  _148
REMARK   59  A    between atoms: _147  and  _150
REMARK   60  A    between atoms: _150  and  _151
REMARK   61  A    between atoms: _154  and  _156
REMARK   62  A    between atoms: _156  and  _157
REMARK   63  A    between atoms: _156  and  _159
REMARK   64  A    between atoms: _159  and  _160
REMARK   65  A    between atoms: _163  and  _165
REMARK   66  A    between atoms: _165  and  _166
REMARK   67  A    between atoms: _165  and  _168
REMARK   68  A    between atoms: _168  and  _169
REMARK   69  A    between atoms: _169  and  _170
REMARK   70  A    between atoms: _170  and  _171
REMARK   71  A    between atoms: _180  and  _182
REMARK   72  A    between atoms: _182  and  _183
REMARK   73  A    between atoms: _182  and  _185
REMARK   74  A    between atoms: _185  and  _186
REMARK   75  A    between atoms: _191  and  _192
REMARK   76  A    between atoms: _194  and  _196
REMARK   77  A    between atoms: _196  and  _197
REMARK   78  A    between atoms: _196  and  _199
REMARK   79  A    between atoms: _199  and  _200
REMARK   80  A    between atoms: _202  and  _204
REMARK   81  A    between atoms: _204  and  _205
REMARK   82  A    between atoms: _204  and  _207
REMARK   83  A    between atoms: _207  and  _208
REMARK   84  A    between atoms: _211  and  _213
REMARK   85  A    between atoms: _213  and  _214
REMARK   86  A    between atoms: _216  and  _218
REMARK   87  A    between atoms: _218  and  _219
REMARK   88  A    between atoms: _218  and  _221
REMARK   89  A    between atoms: _224  and  _226
REMARK   90  A    between atoms: _226  and  _227
REMARK   91  A    between atoms: _226  and  _229
REMARK   92  A    between atoms: _229  and  _230
REMARK   93  A    between atoms: _230  and  _231
REMARK   94  A    between atoms: _233  and  _235
REMARK   95  A    between atoms: _235  and  _236
REMARK   96  A    between atoms: _239  and  _241
REMARK   97  A    between atoms: _241  and  _242
REMARK   98  A    between atoms: _241  and  _244
REMARK   99  A    between atoms: _244  and  _245
REMARK  100  A    between atoms: _249  and  _250
REMARK  101  A    between atoms: _255  and  _257
REMARK  102  A    between atoms: _257  and  _258
REMARK  103  A    between atoms: _257  and  _260
REMARK  104  A    between atoms: _260  and  _261
REMARK  105  A    between atoms: _267  and  _269
REMARK  106  A    between atoms: _269  and  _270
REMARK  107  A    between atoms: _269  and  _272
REMARK  108  A    between atoms: _272  and  _273
REMARK  109  A    between atoms: _273  and  _274
REMARK  110  A    between atoms: _276  and  _278
REMARK  111  A    between atoms: _278  and  _279
REMARK  112  A    between atoms: _278  and  _281
REMARK  113  A    between atoms: _281  and  _282
REMARK  114  A    between atoms: _285  and  _287
REMARK  115  A    between atoms: _287  and  _288
REMARK  116  A    between atoms: _291  and  _293
REMARK  117  A    between atoms: _293  and  _294
REMARK  118  A    between atoms: _293  and  _296
REMARK  119  A    between atoms: _296  and  _297
REMARK  120  A    between atoms: _297  and  _298
REMARK  121  A    between atoms: _301  and  _303
REMARK  122  A    between atoms: _303  and  _304
REMARK  123  A    between atoms: _303  and  _306
REMARK  124  A    between atoms: _306  and  _307
REMARK  125  A    between atoms: _313  and  _315
REMARK  126  A    between atoms: _315  and  _316
REMARK  127  A    between atoms: _315  and  _318
REMARK  128  A    between atoms: _318  and  _319
REMARK  129  A    between atoms: _322  and  _324
REMARK  130  A    between atoms: _324  and  _325
REMARK  131  A    between atoms: _327  and  _329
REMARK  132  A    between atoms: _329  and  _330
REMARK  133  A    between atoms: _329  and  _332
REMARK  134  A    between atoms: _335  and  _337
REMARK  135  A    between atoms: _337  and  _338
REMARK  136  A    between atoms: _337  and  _340
REMARK  137  A    between atoms: _343  and  _345
REMARK  138  A    between atoms: _345  and  _346
REMARK  139  A    between atoms: _345  and  _348
REMARK  140  A    between atoms: _348  and  _349
REMARK  141  A    between atoms: _349  and  _350
REMARK  142  A    between atoms: _352  and  _354
REMARK  143  A    between atoms: _354  and  _355
REMARK  144  A    between atoms: _357  and  _359
REMARK  145  A    between atoms: _359  and  _360
REMARK  146  A    between atoms: _359  and  _362
REMARK  147  A    between atoms: _362  and  _363
REMARK  148  A    between atoms: _369  and  _371
REMARK  149  A    between atoms: _371  and  _372
REMARK  150  A    between atoms: _371  and  _374
REMARK  151  A    between atoms: _374  and  _375
REMARK  152  A    between atoms: _375  and  _376
REMARK  153  A    between atoms: _379  and  _381
REMARK  154  A    between atoms: _381  and  _382
REMARK  155  A    between atoms: _381  and  _384
REMARK  156  A    between atoms: _384  and  _385
REMARK  157  A    between atoms: _385  and  _386
REMARK  158  A    between atoms: _391  and  _393
REMARK  159  A    between atoms: _393  and  _394
REMARK  160  A    between atoms: _397  and  _399
REMARK  161  A    between atoms: _399  and  _400
REMARK  162  A    between atoms: _399  and  _402
REMARK  163  A    between atoms: _402  and  _403
REMARK  164  A    between atoms: _406  and  _408
REMARK  165  A    between atoms: _408  and  _409
REMARK  166  A    between atoms: _411  and  _413
REMARK  167  A    between atoms: _413  and  _414
REMARK  168  A    between atoms: _413  and  _416
REMARK  169  A    between atoms: _419  and  _421
REMARK  170  A    between atoms: _421  and  _422
REMARK  171  A    between atoms: _421  and  _424
REMARK  172  A    between atoms: _424  and  _425
REMARK  173  A    between atoms: _425  and  _426
REMARK  174  A    between atoms: _431  and  _433
REMARK  175  A    between atoms: _433  and  _434
REMARK  176  A    between atoms: _433  and  _436
REMARK  177  A    between atoms: _436  and  _437
REMARK  178  A    between atoms: _440  and  _442
REMARK  179  A    between atoms: _442  and  _443
REMARK  180  A    between atoms: _442  and  _445
REMARK  181  A    between atoms: _448  and  _450
REMARK  182  A    between atoms: _450  and  _451
REMARK  183  A    between atoms: _450  and  _453
REMARK  184  A    between atoms: _453  and  _454
REMARK  185  A    between atoms: _457  and  _459
REMARK  186  A    between atoms: _459  and  _460
REMARK  187  A    between atoms: _459  and  _462
REMARK  188  A    between atoms: _462  and  _463
REMARK  189  A    between atoms: _466  and  _468
REMARK  190  A    between atoms: _468  and  _469
REMARK  191  A    between atoms: _471  and  _473
REMARK  192  A    between atoms: _473  and  _474
REMARK  193  A    between atoms: _477  and  _479
REMARK  194  A    between atoms: _479  and  _480
REMARK  195  A    between atoms: _479  and  _482
REMARK  196  A    between atoms: _482  and  _483
REMARK  197  A    between atoms: _485  and  _487
REMARK  198  A    between atoms: _487  and  _488
REMARK  199  A    between atoms: _487  and  _490
REMARK  200  A    between atoms: _490  and  _491
REMARK  201  A    between atoms: _496  and  _497
REMARK  202  A    between atoms: _499  and  _501
REMARK  203  A    between atoms: _501  and  _502
REMARK  204  A    between atoms: _501  and  _504
REMARK  205  A    between atoms: _504  and  _505
REMARK  206  A    between atoms: _508  and  _510
REMARK  207  A    between atoms: _510  and  _511
REMARK  208  A    between atoms: _510  and  _513
REMARK  209  A    between atoms: _513  and  _514
REMARK  210  A    between atoms: _516  and  _518
REMARK  211  A    between atoms: _518  and  _519
REMARK  212  A    between atoms: _521  and  _523
REMARK  213  A    between atoms: _523  and  _524
REMARK  214  A    between atoms: _523  and  _526
REMARK  215  A    between atoms: _526  and  _527
REMARK  216  A    between atoms: _533  and  _535
REMARK  217  A    between atoms: _535  and  _536
REMARK  218  A    between atoms: _535  and  _538
REMARK  219  A    between atoms: _538  and  _539
REMARK  220  A    between atoms: _542  and  _544
REMARK  221  A    between atoms: _544  and  _545
REMARK  222  A    between atoms: _548  and  _550
REMARK  223  A    between atoms: _550  and  _551
REMARK  224  A    between atoms: _550  and  _553
REMARK  225  A    between atoms: _553  and  _554
REMARK  226  A    between atoms: _557  and  _559
REMARK  227  A    between atoms: _559  and  _560
REMARK  228  A    between atoms: _559  and  _562
REMARK  229  A    between atoms: _562  and  _563
REMARK  230  A    between atoms: _568  and  _570
REMARK  231  A    between atoms: _570  and  _571
REMARK  232  A    between atoms: _574  and  _576
REMARK  233  A    between atoms: _576  and  _577
REMARK  234  A    between atoms: _576  and  _579
REMARK  235  A    between atoms: _579  and  _580
REMARK  236  A    between atoms: _580  and  _581
REMARK  237  A    between atoms: _583  and  _585
REMARK  238  A    between atoms: _585  and  _586
REMARK  239  A    between atoms: _585  and  _588
REMARK  240  A    between atoms: _588  and  _589
REMARK  241  A    between atoms: _592  and  _594
REMARK  242  A    between atoms: _594  and  _595
REMARK  243  A    between atoms: _594  and  _597
REMARK  244  A    between atoms: _597  and  _598
REMARK  245  A    between atoms: _602  and  _603
REMARK  246  A    between atoms: _608  and  _610
REMARK  247  A    between atoms: _610  and  _611
REMARK  248  A    between atoms: _610  and  _613
REMARK  249  A    between atoms: _613  and  _614
REMARK  250  A    between atoms: _617  and  _619
REMARK  251  A    between atoms: _619  and  _620
REMARK  252  A    between atoms: _622  and  _624
REMARK  253  A    between atoms: _624  and  _625
REMARK  254  A    between atoms: _624  and  _627
REMARK  255  A    between atoms: _627  and  _628
REMARK  256  A    between atoms: _631  and  _633
REMARK  257  A    between atoms: _633  and  _634
REMARK  258  A    between atoms: _633  and  _636
REMARK  259  A    between atoms: _636  and  _637
REMARK  260  A    between atoms: _647  and  _649
REMARK  261  A    between atoms: _649  and  _650
REMARK  262  A    between atoms: _653  and  _655
REMARK  263  A    between atoms: _655  and  _656
REMARK  264  A    between atoms: _655  and  _658
REMARK  265  A    between atoms: _658  and  _659
REMARK  266  A    between atoms: _662  and  _664
REMARK  267  A    between atoms: _664  and  _665
REMARK  268  A    between atoms: _667  and  _669
REMARK  269  A    between atoms: _669  and  _670
REMARK  270  A    between atoms: _673  and  _675
REMARK  271  A    between atoms: _675  and  _676
REMARK  272  A    between atoms: _675  and  _678
REMARK  273  A    between atoms: _678  and  _679
REMARK  274  A    between atoms: _682  and  _684
REMARK  275  A    between atoms: _684  and  _685
REMARK  276  A    between atoms: _684  and  _687
REMARK  277  A    between atoms: _687  and  _688
REMARK                            x       y       z     vdW  Elec       q    Type
REMARK                         _______ _______ _______ _____ _____    ______ ____
ROOT
ATOM      1  O   HOH     1      -4.321 -31.726 -44.143  0.00  0.00    +0.000 OA
ENDROOT
TORSDOF 0
REMARK  Name = ../refined-set-2016/3own/3own_pocket.pdb
REMARK  277 active torsions:
REMARK  status: ('A' for Active; 'I' for Inactive)
REMARK    1  A    between atoms: _1  and  _3
REMARK    2  A    between atoms: _3  and  _4
REMARK    3  A    between atoms: _3  and  _6
REMARK    4  A    between atoms: _6  and  _7
REMARK    5  A    between atoms: _12  and  _13
REMARK    6  A    between atoms: _15  and  _17
REMARK    7  A    between atoms: _17  and  _18
REMARK    8  A    between atoms: _17  and  _20
REMARK    9  A    between atoms: _20  and  _21
REMARK   10  A    between atoms: _24  and  _26
REMARK   11  A    between atoms: _26  and  _27
REMARK   12  A    between atoms: _26  and  _29
REMARK   13  A    between atoms: _29  and  _30
REMARK   14  A    between atoms: _33  and  _35
REMARK   15  A    between atoms: _35  and  _36
REMARK   16  A    between atoms: _35  and  _38
REMARK   17  A    between atoms: _38  and  _39
REMARK   18  A    between atoms: _39  and  _40
REMARK   19  A    between atoms: _45  and  _47
REMARK   20  A    between atoms: _47  and  _48
REMARK   21  A    between atoms: _47  and  _50
REMARK   22  A    between atoms: _50  and  _51
REMARK   23  A    between atoms: _56  and  _57
REMARK   24  A    between atoms: _59  and  _61
REMARK   25  A    between atoms: _61  and  _62
REMARK   26  A    between atoms: _61  and  _64
REMARK   27  A    between atoms: _67  and  _69
REMARK   28  A    between atoms: _69  and  _70
REMARK   29  A    between atoms: _69  and  _72
REMARK   30  A    between atoms: _72  and  _73
REMARK   31  A    between atoms: _79  and  _81
REMARK   32  A    between atoms: _81  and  _82
REMARK   33  A    between atoms: _81  and  _84
REMARK   34  A    between atoms: _84  and  _85
REMARK   35  A    between atoms: _88  and  _90
REMARK   36  A    between atoms: _90  and  _91
REMARK   37  A    between atoms: _90  and  _93
REMARK   38  A    between atoms: _93  and  _94
REMARK   39  A    between atoms: _97  and  _99
REMARK   40  A    between atoms: _99  and  _100
REMARK   41  A    between atoms: _102  and  _104
REMARK   42  A    between atoms: _104  and  _105
REMARK   43  A    between atoms: _104  and  _107
REMARK   44  A    between atoms: _107  and  _108
REMARK   45  A    between atoms: _110  and  _112
REMARK   46  A    between atoms: _112  and  _113
REMARK   47  A    between atoms: _112  and  _115
REMARK   48  A    between atoms: _115  and  _116
REMARK   49  A    between atoms: _118  and  _120
REMARK   50  A    between atoms: _120  and  _121
REMARK   51  A    between atoms: _120  and  _123
REMARK   52  A    between atoms: _123  and  _124
REMARK   53  A    between atoms: _129  and  _131
REMARK   54  A    between atoms: _131  and  _132
REMARK   55  A    between atoms: _131  and  _134
REMARK   56  A    between atoms: _134  and  _135
REMARK   57  A    between atoms: _145  and  _147
REMARK   58  A    between atoms: _147  and  _148
REMARK   59  A    between atoms: _147  and  _150
REMARK   60  A    between atoms: _150  and  _151
REMARK   61  A    between atoms: _154  and  _156
REMARK   62  A    between atoms: _156  and  _157
REMARK   63  A    between atoms: _156  and  _159
REMARK   64  A    between atoms: _159  and  _160
REMARK   65  A    between atoms: _163  and  _165
REMARK   66  A    between atoms: _165  and  _166
REMARK   67  A    between atoms: _165  and  _168
REMARK   68  A    between atoms: _168  and  _169
REMARK   69  A    between atoms: _169  and  _170
REMARK   70  A    between atoms: _170  and  _171
REMARK   71  A    between atoms: _180  and  _182
REMARK   72  A    between atoms: _182  and  _183
REMARK   73  A    between atoms: _182  and  _185
REMARK   74  A    between atoms: _185  and  _186
REMARK   75  A    between atoms: _191  and  _192
REMARK   76  A    between atoms: _194  and  _196
REMARK   77  A    between atoms: _196  and  _197
REMARK   78  A    between atoms: _196  and  _199
REMARK   79  A    between atoms: _199  and  _200
REMARK   80  A    between atoms: _202  and  _204
REMARK   81  A    between atoms: _204  and  _205
REMARK   82  A    between atoms: _204  and  _207
REMARK   83  A    between atoms: _207  and  _208
REMARK   84  A    between atoms: _211  and  _213
REMARK   85  A    between atoms: _213  and  _214
REMARK   86  A    between atoms: _216  and  _218
REMARK   87  A    between atoms: _218  and  _219
REMARK   88  A    between atoms: _218  and  _221
REMARK   89  A    between atoms: _224  and  _226
REMARK   90  A    between atoms: _226  and  _227
REMARK   91  A    between atoms: _226  and  _229
REMARK   92  A    between atoms: _229  and  _230
REMARK   93  A    between atoms: _230  and  _231
REMARK   94  A    between atoms: _233  and  _235
REMARK   95  A    between atoms: _235  and  _236
REMARK   96  A    between atoms: _239  and  _241
REMARK   97  A    between atoms: _241  and  _242
REMARK   98  A    between atoms: _241  and  _244
REMARK   99  A    between atoms: _244  and  _245
REMARK  100  A    between atoms: _249  and  _250
REMARK  101  A    between atoms: _255  and  _257
REMARK  102  A    between atoms: _257  and  _258
REMARK  103  A    between atoms: _257  and  _260
REMARK  104  A    between atoms: _260  and  _261
REMARK  105  A    between atoms: _267  and  _269
REMARK  106  A    between atoms: _269  and  _270
REMARK  107  A    between atoms: _269  and  _272
REMARK  108  A    between atoms: _272  and  _273
REMARK  109  A    between atoms: _273  and  _274
REMARK  110  A    between atoms: _276  and  _278
REMARK  111  A    between atoms: _278  and  _279
REMARK  112  A    between atoms: _278  and  _281
REMARK  113  A    between atoms: _281  and  _282
REMARK  114  A    between atoms: _285  and  _287
REMARK  115  A    between atoms: _287  and  _288
REMARK  116  A    between atoms: _291  and  _293
REMARK  117  A    between atoms: _293  and  _294
REMARK  118  A    between atoms: _293  and  _296
REMARK  119  A    between atoms: _296  and  _297
REMARK  120  A    between atoms: _297  and  _298
REMARK  121  A    between atoms: _301  and  _303
REMARK  122  A    between atoms: _303  and  _304
REMARK  123  A    between atoms: _303  and  _306
REMARK  124  A    between atoms: _306  and  _307
REMARK  125  A    between atoms: _313  and  _315
REMARK  126  A    between atoms: _315  and  _316
REMARK  127  A    between atoms: _315  and  _318
REMARK  128  A    between atoms: _318  and  _319
REMARK  129  A    between atoms: _322  and  _324
REMARK  130  A    between atoms: _324  and  _325
REMARK  131  A    between atoms: _327  and  _329
REMARK  132  A    between atoms: _329  and  _330
REMARK  133  A    between atoms: _329  and  _332
REMARK  134  A    between atoms: _335  and  _337
REMARK  135  A    between atoms: _337  and  _338
REMARK  136  A    between atoms: _337  and  _340
REMARK  137  A    between atoms: _343  and  _345
REMARK  138  A    between atoms: _345  and  _346
REMARK  139  A    between atoms: _345  and  _348
REMARK  140  A    between atoms: _348  and  _349
REMARK  141  A    between atoms: _349  and  _350
REMARK  142  A    between atoms: _352  and  _354
REMARK  143  A    between atoms: _354  and  _355
REMARK  144  A    between atoms: _357  and  _359
REMARK  145  A    between atoms: _359  and  _360
REMARK  146  A    between atoms: _359  and  _362
REMARK  147  A    between atoms: _362  and  _363
REMARK  148  A    between atoms: _369  and  _371
REMARK  149  A    between atoms: _371  and  _372
REMARK  150  A    between atoms: _371  and  _374
REMARK  151  A    between atoms: _374  and  _375
REMARK  152  A    between atoms: _375  and  _376
REMARK  153  A    between atoms: _379  and  _381
REMARK  154  A    between atoms: _381  and  _382
REMARK  155  A    between atoms: _381  and  _384
REMARK  156  A    between atoms: _384  and  _385
REMARK  157  A    between atoms: _385  and  _386
REMARK  158  A    between atoms: _391  and  _393
REMARK  159  A    between atoms: _393  and  _394
REMARK  160  A    between atoms: _397  and  _399
REMARK  161  A    between atoms: _399  and  _400
REMARK  162  A    between atoms: _399  and  _402
REMARK  163  A    between atoms: _402  and  _403
REMARK  164  A    between atoms: _406  and  _408
REMARK  165  A    between atoms: _408  and  _409
REMARK  166  A    between atoms: _411  and  _413
REMARK  167  A    between atoms: _413  and  _414
REMARK  168  A    between atoms: _413  and  _416
REMARK  169  A    between atoms: _419  and  _421
REMARK  170  A    between atoms: _421  and  _422
REMARK  171  A    between atoms: _421  and  _424
REMARK  172  A    between atoms: _424  and  _425
REMARK  173  A    between atoms: _425  and  _426
REMARK  174  A    between atoms: _431  and  _433
REMARK  175  A    between atoms: _433  and  _434
REMARK  176  A    between atoms: _433  and  _436
REMARK  177  A    between atoms: _436  and  _437
REMARK  178  A    between atoms: _440  and  _442
REMARK  179  A    between atoms: _442  and  _443
REMARK  180  A    between atoms: _442  and  _445
REMARK  181  A    between atoms: _448  and  _450
REMARK  182  A    between atoms: _450  and  _451
REMARK  183  A    between atoms: _450  and  _453
REMARK  184  A    between atoms: _453  and  _454
REMARK  185  A    between atoms: _457  and  _459
REMARK  186  A    between atoms: _459  and  _460
REMARK  187  A    between atoms: _459  and  _462
REMARK  188  A    between atoms: _462  and  _463
REMARK  189  A    between atoms: _466  and  _468
REMARK  190  A    between atoms: _468  and  _469
REMARK  191  A    between atoms: _471  and  _473
REMARK  192  A    between atoms: _473  and  _474
REMARK  193  A    between atoms: _477  and  _479
REMARK  194  A    between atoms: _479  and  _480
REMARK  195  A    between atoms: _479  and  _482
REMARK  196  A    between atoms: _482  and  _483
REMARK  197  A    between atoms: _485  and  _487
REMARK  198  A    between atoms: _487  and  _488
REMARK  199  A    between atoms: _487  and  _490
REMARK  200  A    between atoms: _490  and  _491
REMARK  201  A    between atoms: _496  and  _497
REMARK  202  A    between atoms: _499  and  _501
REMARK  203  A    between atoms: _501  and  _502
REMARK  204  A    between atoms: _501  and  _504
REMARK  205  A    between atoms: _504  and  _505
REMARK  206  A    between atoms: _508  and  _510
REMARK  207  A    between atoms: _510  and  _511
REMARK  208  A    between atoms: _510  and  _513
REMARK  209  A    between atoms: _513  and  _514
REMARK  210  A    between atoms: _516  and  _518
REMARK  211  A    between atoms: _518  and  _519
REMARK  212  A    between atoms: _521  and  _523
REMARK  213  A    between atoms: _523  and  _524
REMARK  214  A    between atoms: _523  and  _526
REMARK  215  A    between atoms: _526  and  _527
REMARK  216  A    between atoms: _533  and  _535
REMARK  217  A    between atoms: _535  and  _536
REMARK  218  A    between atoms: _535  and  _538
REMARK  219  A    between atoms: _538  and  _539
REMARK  220  A    between atoms: _542  and  _544
REMARK  221  A    between atoms: _544  and  _545
REMARK  222  A    between atoms: _548  and  _550
REMARK  223  A    between atoms: _550  and  _551
REMARK  224  A    between atoms: _550  and  _553
REMARK  225  A    between atoms: _553  and  _554
REMARK  226  A    between atoms: _557  and  _559
REMARK  227  A    between atoms: _559  and  _560
REMARK  228  A    between atoms: _559  and  _562
REMARK  229  A    between atoms: _562  and  _563
REMARK  230  A    between atoms: _568  and  _570
REMARK  231  A    between atoms: _570  and  _571
REMARK  232  A    between atoms: _574  and  _576
REMARK  233  A    between atoms: _576  and  _577
REMARK  234  A    between atoms: _576  and  _579
REMARK  235  A    between atoms: _579  and  _580
REMARK  236  A    between atoms: _580  and  _581
REMARK  237  A    between atoms: _583  and  _585
REMARK  238  A    between atoms: _585  and  _586
REMARK  239  A    between atoms: _585  and  _588
REMARK  240  A    between atoms: _588  and  _589
REMARK  241  A    between atoms: _592  and  _594
REMARK  242  A    between atoms: _594  and  _595
REMARK  243  A    between atoms: _594  and  _597
REMARK  244  A    between atoms: _597  and  _598
REMARK  245  A    between atoms: _602  and  _603
REMARK  246  A    between atoms: _608  and  _610
REMARK  247  A    between atoms: _610  and  _611
REMARK  248  A    between atoms: _610  and  _613
REMARK  249  A    between atoms: _613  and  _614
REMARK  250  A    between atoms: _617  and  _619
REMARK  251  A    between atoms: _619  and  _620
REMARK  252  A    between atoms: _622  and  _624
REMARK  253  A    between atoms: _624  and  _625
REMARK  254  A    between atoms: _624  and  _627
REMARK  255  A    between atoms: _627  and  _628
REMARK  256  A    between atoms: _631  and  _633
REMARK  257  A    between atoms: _633  and  _634
REMARK  258  A    between atoms: _633  and  _636
REMARK  259  A    between atoms: _636  and  _637
REMARK  260  A    between atoms: _647  and  _649
REMARK  261  A    between atoms: _649  and  _650
REMARK  262  A    between atoms: _653  and  _655
REMARK  263  A    between atoms: _655  and  _656
REMARK  264  A    between atoms: _655  and  _658
REMARK  265  A    between atoms: _658  and  _659
REMARK  266  A    between atoms: _662  and  _664
REMARK  267  A    between atoms: _664  and  _665
REMARK  268  A    between atoms: _667  and  _669
REMARK  269  A    between atoms: _669  and  _670
REMARK  270  A    between atoms: _673  and  _675
REMARK  271  A    between atoms: _675  and  _676
REMARK  272  A    between atoms: _675  and  _678
REMARK  273  A    between atoms: _678  and  _679
REMARK  274  A    between atoms: _682  and  _684
REMARK  275  A    between atoms: _684  and  _685
REMARK  276  A    between atoms: _684  and  _687
REMARK  277  A    between atoms: _687  and  _688
REMARK                            x       y       z     vdW  Elec       q    Type
REMARK                         _______ _______ _______ _____ _____    ______ ____
ROOT
ATOM      1  O   HOH     1      -5.946 -33.134 -42.692  0.00  0.00    +0.000 OA
ENDROOT
TORSDOF 0
REMARK  Name = ../refined-set-2016/3own/3own_pocket.pdb
REMARK  277 active torsions:
REMARK  status: ('A' for Active; 'I' for Inactive)
REMARK    1  A    between atoms: _1  and  _3
REMARK    2  A    between atoms: _3  and  _4
REMARK    3  A    between atoms: _3  and  _6
REMARK    4  A    between atoms: _6  and  _7
REMARK    5  A    between atoms: _12  and  _13
REMARK    6  A    between atoms: _15  and  _17
REMARK    7  A    between atoms: _17  and  _18
REMARK    8  A    between atoms: _17  and  _20
REMARK    9  A    between atoms: _20  and  _21
REMARK   10  A    between atoms: _24  and  _26
REMARK   11  A    between atoms: _26  and  _27
REMARK   12  A    between atoms: _26  and  _29
REMARK   13  A    between atoms: _29  and  _30
REMARK   14  A    between atoms: _33  and  _35
REMARK   15  A    between atoms: _35  and  _36
REMARK   16  A    between atoms: _35  and  _38
REMARK   17  A    between atoms: _38  and  _39
REMARK   18  A    between atoms: _39  and  _40
REMARK   19  A    between atoms: _45  and  _47
REMARK   20  A    between atoms: _47  and  _48
REMARK   21  A    between atoms: _47  and  _50
REMARK   22  A    between atoms: _50  and  _51
REMARK   23  A    between atoms: _56  and  _57
REMARK   24  A    between atoms: _59  and  _61
REMARK   25  A    between atoms: _61  and  _62
REMARK   26  A    between atoms: _61  and  _64
REMARK   27  A    between atoms: _67  and  _69
REMARK   28  A    between atoms: _69  and  _70
REMARK   29  A    between atoms: _69  and  _72
REMARK   30  A    between atoms: _72  and  _73
REMARK   31  A    between atoms: _79  and  _81
REMARK   32  A    between atoms: _81  and  _82
REMARK   33  A    between atoms: _81  and  _84
REMARK   34  A    between atoms: _84  and  _85
REMARK   35  A    between atoms: _88  and  _90
REMARK   36  A    between atoms: _90  and  _91
REMARK   37  A    between atoms: _90  and  _93
REMARK   38  A    between atoms: _93  and  _94
REMARK   39  A    between atoms: _97  and  _99
REMARK   40  A    between atoms: _99  and  _100
REMARK   41  A    between atoms: _102  and  _104
REMARK   42  A    between atoms: _104  and  _105
REMARK   43  A    between atoms: _104  and  _107
REMARK   44  A    between atoms: _107  and  _108
REMARK   45  A    between atoms: _110  and  _112
REMARK   46  A    between atoms: _112  and  _113
REMARK   47  A    between atoms: _112  and  _115
REMARK   48  A    between atoms: _115  and  _116
REMARK   49  A    between atoms: _118  and  _120
REMARK   50  A    between atoms: _120  and  _121
REMARK   51  A    between atoms: _120  and  _123
REMARK   52  A    between atoms: _123  and  _124
REMARK   53  A    between atoms: _129  and  _131
REMARK   54  A    between atoms: _131  and  _132
REMARK   55  A    between atoms: _131  and  _134
REMARK   56  A    between atoms: _134  and  _135
REMARK   57  A    between atoms: _145  and  _147
REMARK   58  A    between atoms: _147  and  _148
REMARK   59  A    between atoms: _147  and  _150
REMARK   60  A    between atoms: _150  and  _151
REMARK   61  A    between atoms: _154  and  _156
REMARK   62  A    between atoms: _156  and  _157
REMARK   63  A    between atoms: _156  and  _159
REMARK   64  A    between atoms: _159  and  _160
REMARK   65  A    between atoms: _163  and  _165
REMARK   66  A    between atoms: _165  and  _166
REMARK   67  A    between atoms: _165  and  _168
REMARK   68  A    between atoms: _168  and  _169
REMARK   69  A    between atoms: _169  and  _170
REMARK   70  A    between atoms: _170  and  _171
REMARK   71  A    between atoms: _180  and  _182
REMARK   72  A    between atoms: _182  and  _183
REMARK   73  A    between atoms: _182  and  _185
REMARK   74  A    between atoms: _185  and  _186
REMARK   75  A    between atoms: _191  and  _192
REMARK   76  A    between atoms: _194  and  _196
REMARK   77  A    between atoms: _196  and  _197
REMARK   78  A    between atoms: _196  and  _199
REMARK   79  A    between atoms: _199  and  _200
REMARK   80  A    between atoms: _202  and  _204
REMARK   81  A    between atoms: _204  and  _205
REMARK   82  A    between atoms: _204  and  _207
REMARK   83  A    between atoms: _207  and  _208
REMARK   84  A    between atoms: _211  and  _213
REMARK   85  A    between atoms: _213  and  _214
REMARK   86  A    between atoms: _216  and  _218
REMARK   87  A    between atoms: _218  and  _219
REMARK   88  A    between atoms: _218  and  _221
REMARK   89  A    between atoms: _224  and  _226
REMARK   90  A    between atoms: _226  and  _227
REMARK   91  A    between atoms: _226  and  _229
REMARK   92  A    between atoms: _229  and  _230
REMARK   93  A    between atoms: _230  and  _231
REMARK   94  A    between atoms: _233  and  _235
REMARK   95  A    between atoms: _235  and  _236
REMARK   96  A    between atoms: _239  and  _241
REMARK   97  A    between atoms: _241  and  _242
REMARK   98  A    between atoms: _241  and  _244
REMARK   99  A    between atoms: _244  and  _245
REMARK  100  A    between atoms: _249  and  _250
REMARK  101  A    between atoms: _255  and  _257
REMARK  102  A    between atoms: _257  and  _258
REMARK  103  A    between atoms: _257  and  _260
REMARK  104  A    between atoms: _260  and  _261
REMARK  105  A    between atoms: _267  and  _269
REMARK  106  A    between atoms: _269  and  _270
REMARK  107  A    between atoms: _269  and  _272
REMARK  108  A    between atoms: _272  and  _273
REMARK  109  A    between atoms: _273  and  _274
REMARK  110  A    between atoms: _276  and  _278
REMARK  111  A    between atoms: _278  and  _279
REMARK  112  A    between atoms: _278  and  _281
REMARK  113  A    between atoms: _281  and  _282
REMARK  114  A    between atoms: _285  and  _287
REMARK  115  A    between atoms: _287  and  _288
REMARK  116  A    between atoms: _291  and  _293
REMARK  117  A    between atoms: _293  and  _294
REMARK  118  A    between atoms: _293  and  _296
REMARK  119  A    between atoms: _296  and  _297
REMARK  120  A    between atoms: _297  and  _298
REMARK  121  A    between atoms: _301  and  _303
REMARK  122  A    between atoms: _303  and  _304
REMARK  123  A    between atoms: _303  and  _306
REMARK  124  A    between atoms: _306  and  _307
REMARK  125  A    between atoms: _313  and  _315
REMARK  126  A    between atoms: _315  and  _316
REMARK  127  A    between atoms: _315  and  _318
REMARK  128  A    between atoms: _318  and  _319
REMARK  129  A    between atoms: _322  and  _324
REMARK  130  A    between atoms: _324  and  _325
REMARK  131  A    between atoms: _327  and  _329
REMARK  132  A    between atoms: _329  and  _330
REMARK  133  A    between atoms: _329  and  _332
REMARK  134  A    between atoms: _335  and  _337
REMARK  135  A    between atoms: _337  and  _338
REMARK  136  A    between atoms: _337  and  _340
REMARK  137  A    between atoms: _343  and  _345
REMARK  138  A    between atoms: _345  and  _346
REMARK  139  A    between atoms: _345  and  _348
REMARK  140  A    between atoms: _348  and  _349
REMARK  141  A    between atoms: _349  and  _350
REMARK  142  A    between atoms: _352  and  _354
REMARK  143  A    between atoms: _354  and  _355
REMARK  144  A    between atoms: _357  and  _359
REMARK  145  A    between atoms: _359  and  _360
REMARK  146  A    between atoms: _359  and  _362
REMARK  147  A    between atoms: _362  and  _363
REMARK  148  A    between atoms: _369  and  _371
REMARK  149  A    between atoms: _371  and  _372
REMARK  150  A    between atoms: _371  and  _374
REMARK  151  A    between atoms: _374  and  _375
REMARK  152  A    between atoms: _375  and  _376
REMARK  153  A    between atoms: _379  and  _381
REMARK  154  A    between atoms: _381  and  _382
REMARK  155  A    between atoms: _381  and  _384
REMARK  156  A    between atoms: _384  and  _385
REMARK  157  A    between atoms: _385  and  _386
REMARK  158  A    between atoms: _391  and  _393
REMARK  159  A    between atoms: _393  and  _394
REMARK  160  A    between atoms: _397  and  _399
REMARK  161  A    between atoms: _399  and  _400
REMARK  162  A    between atoms: _399  and  _402
REMARK  163  A    between atoms: _402  and  _403
REMARK  164  A    between atoms: _406  and  _408
REMARK  165  A    between atoms: _408  and  _409
REMARK  166  A    between atoms: _411  and  _413
REMARK  167  A    between atoms: _413  and  _414
REMARK  168  A    between atoms: _413  and  _416
REMARK  169  A    between atoms: _419  and  _421
REMARK  170  A    between atoms: _421  and  _422
REMARK  171  A    between atoms: _421  and  _424
REMARK  172  A    between atoms: _424  and  _425
REMARK  173  A    between atoms: _425  and  _426
REMARK  174  A    between atoms: _431  and  _433
REMARK  175  A    between atoms: _433  and  _434
REMARK  176  A    between atoms: _433  and  _436
REMARK  177  A    between atoms: _436  and  _437
REMARK  178  A    between atoms: _440  and  _442
REMARK  179  A    between atoms: _442  and  _443
REMARK  180  A    between atoms: _442  and  _445
REMARK  181  A    between atoms: _448  and  _450
REMARK  182  A    between atoms: _450  and  _451
REMARK  183  A    between atoms: _450  and  _453
REMARK  184  A    between atoms: _453  and  _454
REMARK  185  A    between atoms: _457  and  _459
REMARK  186  A    between atoms: _459  and  _460
REMARK  187  A    between atoms: _459  and  _462
REMARK  188  A    between atoms: _462  and  _463
REMARK  189  A    between atoms: _466  and  _468
REMARK  190  A    between atoms: _468  and  _469
REMARK  191  A    between atoms: _471  and  _473
REMARK  192  A    between atoms: _473  and  _474
REMARK  193  A    between atoms: _477  and  _479
REMARK  194  A    between atoms: _479  and  _480
REMARK  195  A    between atoms: _479  and  _482
REMARK  196  A    between atoms: _482  and  _483
REMARK  197  A    between atoms: _485  and  _487
REMARK  198  A    between atoms: _487  and  _488
REMARK  199  A    between atoms: _487  and  _490
REMARK  200  A    between atoms: _490  and  _491
REMARK  201  A    between atoms: _496  and  _497
REMARK  202  A    between atoms: _499  and  _501
REMARK  203  A    between atoms: _501  and  _502
REMARK  204  A    between atoms: _501  and  _504
REMARK  205  A    between atoms: _504  and  _505
REMARK  206  A    between atoms: _508  and  _510
REMARK  207  A    between atoms: _510  and  _511
REMARK  208  A    between atoms: _510  and  _513
REMARK  209  A    between atoms: _513  and  _514
REMARK  210  A    between atoms: _516  and  _518
REMARK  211  A    between atoms: _518  and  _519
REMARK  212  A    between atoms: _521  and  _523
REMARK  213  A    between atoms: _523  and  _524
REMARK  214  A    between atoms: _523  and  _526
REMARK  215  A    between atoms: _526  and  _527
REMARK  216  A    between atoms: _533  and  _535
REMARK  217  A    between atoms: _535  and  _536
REMARK  218  A    between atoms: _535  and  _538
REMARK  219  A    between atoms: _538  and  _539
REMARK  220  A    between atoms: _542  and  _544
REMARK  221  A    between atoms: _544  and  _545
REMARK  222  A    between atoms: _548  and  _550
REMARK  223  A    between atoms: _550  and  _551
REMARK  224  A    between atoms: _550  and  _553
REMARK  225  A    between atoms: _553  and  _554
REMARK  226  A    between atoms: _557  and  _559
REMARK  227  A    between atoms: _559  and  _560
REMARK  228  A    between atoms: _559  and  _562
REMARK  229  A    between atoms: _562  and  _563
REMARK  230  A    between atoms: _568  and  _570
REMARK  231  A    between atoms: _570  and  _571
REMARK  232  A    between atoms: _574  and  _576
REMARK  233  A    between atoms: _576  and  _577
REMARK  234  A    between atoms: _576  and  _579
REMARK  235  A    between atoms: _579  and  _580
REMARK  236  A    between atoms: _580  and  _581
REMARK  237  A    between atoms: _583  and  _585
REMARK  238  A    between atoms: _585  and  _586
REMARK  239  A    between atoms: _585  and  _588
REMARK  240  A    between atoms: _588  and  _589
REMARK  241  A    between atoms: _592  and  _594
REMARK  242  A    between atoms: _594  and  _595
REMARK  243  A    between atoms: _594  and  _597
REMARK  244  A    between atoms: _597  and  _598
REMARK  245  A    between atoms: _602  and  _603
REMARK  246  A    between atoms: _608  and  _610
REMARK  247  A    between atoms: _610  and  _611
REMARK  248  A    between atoms: _610  and  _613
REMARK  249  A    between atoms: _613  and  _614
REMARK  250  A    between atoms: _617  and  _619
REMARK  251  A    between atoms: _619  and  _620
REMARK  252  A    between atoms: _622  and  _624
REMARK  253  A    between atoms: _624  and  _625
REMARK  254  A    between atoms: _624  and  _627
REMARK  255  A    between atoms: _627  and  _628
REMARK  256  A    between atoms: _631  and  _633
REMARK  257  A    between atoms: _633  and  _634
REMARK  258  A    between atoms: _633  and  _636
REMARK  259  A    between atoms: _636  and  _637
REMARK  260  A    between atoms: _647  and  _649
REMARK  261  A    between atoms: _649  and  _650
REMARK  262  A    between atoms: _653  and  _655
REMARK  263  A    between atoms: _655  and  _656
REMARK  264  A    between atoms: _655  and  _658
REMARK  265  A    between atoms: _658  and  _659
REMARK  266  A    between atoms: _662  and  _664
REMARK  267  A    between atoms: _664  and  _665
REMARK  268  A    between atoms: _667  and  _669
REMARK  269  A    between atoms: _669  and  _670
REMARK  270  A    between atoms: _673  and  _675
REMARK  271  A    between atoms: _675  and  _676
REMARK  272  A    between atoms: _675  and  _678
REMARK  273  A    between atoms: _678  and  _679
REMARK  274  A    between atoms: _682  and  _684
REMARK  275  A    between atoms: _684  and  _685
REMARK  276  A    between atoms: _684  and  _687
REMARK  277  A    between atoms: _687  and  _688
REMARK                            x       y       z     vdW  Elec       q    Type
REMARK                         _______ _______ _______ _____ _____    ______ ____
ROOT
ATOM      1  O   HOH     1     -10.799 -35.475 -37.669  0.00  0.00    +0.000 OA
ENDROOT
TORSDOF 0
REMARK  Name = ../refined-set-2016/3own/3own_pocket.pdb
REMARK  277 active torsions:
REMARK  status: ('A' for Active; 'I' for Inactive)
REMARK    1  A    between atoms: _1  and  _3
REMARK    2  A    between atoms: _3  and  _4
REMARK    3  A    between atoms: _3  and  _6
REMARK    4  A    between atoms: _6  and  _7
REMARK    5  A    between atoms: _12  and  _13
REMARK    6  A    between atoms: _15  and  _17
REMARK    7  A    between atoms: _17  and  _18
REMARK    8  A    between atoms: _17  and  _20
REMARK    9  A    between atoms: _20  and  _21
REMARK   10  A    between atoms: _24  and  _26
REMARK   11  A    between atoms: _26  and  _27
REMARK   12  A    between atoms: _26  and  _29
REMARK   13  A    between atoms: _29  and  _30
REMARK   14  A    between atoms: _33  and  _35
REMARK   15  A    between atoms: _35  and  _36
REMARK   16  A    between atoms: _35  and  _38
REMARK   17  A    between atoms: _38  and  _39
REMARK   18  A    between atoms: _39  and  _40
REMARK   19  A    between atoms: _45  and  _47
REMARK   20  A    between atoms: _47  and  _48
REMARK   21  A    between atoms: _47  and  _50
REMARK   22  A    between atoms: _50  and  _51
REMARK   23  A    between atoms: _56  and  _57
REMARK   24  A    between atoms: _59  and  _61
REMARK   25  A    between atoms: _61  and  _62
REMARK   26  A    between atoms: _61  and  _64
REMARK   27  A    between atoms: _67  and  _69
REMARK   28  A    between atoms: _69  and  _70
REMARK   29  A    between atoms: _69  and  _72
REMARK   30  A    between atoms: _72  and  _73
REMARK   31  A    between atoms: _79  and  _81
REMARK   32  A    between atoms: _81  and  _82
REMARK   33  A    between atoms: _81  and  _84
REMARK   34  A    between atoms: _84  and  _85
REMARK   35  A    between atoms: _88  and  _90
REMARK   36  A    between atoms: _90  and  _91
REMARK   37  A    between atoms: _90  and  _93
REMARK   38  A    between atoms: _93  and  _94
REMARK   39  A    between atoms: _97  and  _99
REMARK   40  A    between atoms: _99  and  _100
REMARK   41  A    between atoms: _102  and  _104
REMARK   42  A    between atoms: _104  and  _105
REMARK   43  A    between atoms: _104  and  _107
REMARK   44  A    between atoms: _107  and  _108
REMARK   45  A    between atoms: _110  and  _112
REMARK   46  A    between atoms: _112  and  _113
REMARK   47  A    between atoms: _112  and  _115
REMARK   48  A    between atoms: _115  and  _116
REMARK   49  A    between atoms: _118  and  _120
REMARK   50  A    between atoms: _120  and  _121
REMARK   51  A    between atoms: _120  and  _123
REMARK   52  A    between atoms: _123  and  _124
REMARK   53  A    between atoms: _129  and  _131
REMARK   54  A    between atoms: _131  and  _132
REMARK   55  A    between atoms: _131  and  _134
REMARK   56  A    between atoms: _134  and  _135
REMARK   57  A    between atoms: _145  and  _147
REMARK   58  A    between atoms: _147  and  _148
REMARK   59  A    between atoms: _147  and  _150
REMARK   60  A    between atoms: _150  and  _151
REMARK   61  A    between atoms: _154  and  _156
REMARK   62  A    between atoms: _156  and  _157
REMARK   63  A    between atoms: _156  and  _159
REMARK   64  A    between atoms: _159  and  _160
REMARK   65  A    between atoms: _163  and  _165
REMARK   66  A    between atoms: _165  and  _166
REMARK   67  A    between atoms: _165  and  _168
REMARK   68  A    between atoms: _168  and  _169
REMARK   69  A    between atoms: _169  and  _170
REMARK   70  A    between atoms: _170  and  _171
REMARK   71  A    between atoms: _180  and  _182
REMARK   72  A    between atoms: _182  and  _183
REMARK   73  A    between atoms: _182  and  _185
REMARK   74  A    between atoms: _185  and  _186
REMARK   75  A    between atoms: _191  and  _192
REMARK   76  A    between atoms: _194  and  _196
REMARK   77  A    between atoms: _196  and  _197
REMARK   78  A    between atoms: _196  and  _199
REMARK   79  A    between atoms: _199  and  _200
REMARK   80  A    between atoms: _202  and  _204
REMARK   81  A    between atoms: _204  and  _205
REMARK   82  A    between atoms: _204  and  _207
REMARK   83  A    between atoms: _207  and  _208
REMARK   84  A    between atoms: _211  and  _213
REMARK   85  A    between atoms: _213  and  _214
REMARK   86  A    between atoms: _216  and  _218
REMARK   87  A    between atoms: _218  and  _219
REMARK   88  A    between atoms: _218  and  _221
REMARK   89  A    between atoms: _224  and  _226
REMARK   90  A    between atoms: _226  and  _227
REMARK   91  A    between atoms: _226  and  _229
REMARK   92  A    between atoms: _229  and  _230
REMARK   93  A    between atoms: _230  and  _231
REMARK   94  A    between atoms: _233  and  _235
REMARK   95  A    between atoms: _235  and  _236
REMARK   96  A    between atoms: _239  and  _241
REMARK   97  A    between atoms: _241  and  _242
REMARK   98  A    between atoms: _241  and  _244
REMARK   99  A    between atoms: _244  and  _245
REMARK  100  A    between atoms: _249  and  _250
REMARK  101  A    between atoms: _255  and  _257
REMARK  102  A    between atoms: _257  and  _258
REMARK  103  A    between atoms: _257  and  _260
REMARK  104  A    between atoms: _260  and  _261
REMARK  105  A    between atoms: _267  and  _269
REMARK  106  A    between atoms: _269  and  _270
REMARK  107  A    between atoms: _269  and  _272
REMARK  108  A    between atoms: _272  and  _273
REMARK  109  A    between atoms: _273  and  _274
REMARK  110  A    between atoms: _276  and  _278
REMARK  111  A    between atoms: _278  and  _279
REMARK  112  A    between atoms: _278  and  _281
REMARK  113  A    between atoms: _281  and  _282
REMARK  114  A    between atoms: _285  and  _287
REMARK  115  A    between atoms: _287  and  _288
REMARK  116  A    between atoms: _291  and  _293
REMARK  117  A    between atoms: _293  and  _294
REMARK  118  A    between atoms: _293  and  _296
REMARK  119  A    between atoms: _296  and  _297
REMARK  120  A    between atoms: _297  and  _298
REMARK  121  A    between atoms: _301  and  _303
REMARK  122  A    between atoms: _303  and  _304
REMARK  123  A    between atoms: _303  and  _306
REMARK  124  A    between atoms: _306  and  _307
REMARK  125  A    between atoms: _313  and  _315
REMARK  126  A    between atoms: _315  and  _316
REMARK  127  A    between atoms: _315  and  _318
REMARK  128  A    between atoms: _318  and  _319
REMARK  129  A    between atoms: _322  and  _324
REMARK  130  A    between atoms: _324  and  _325
REMARK  131  A    between atoms: _327  and  _329
REMARK  132  A    between atoms: _329  and  _330
REMARK  133  A    between atoms: _329  and  _332
REMARK  134  A    between atoms: _335  and  _337
REMARK  135  A    between atoms: _337  and  _338
REMARK  136  A    between atoms: _337  and  _340
REMARK  137  A    between atoms: _343  and  _345
REMARK  138  A    between atoms: _345  and  _346
REMARK  139  A    between atoms: _345  and  _348
REMARK  140  A    between atoms: _348  and  _349
REMARK  141  A    between atoms: _349  and  _350
REMARK  142  A    between atoms: _352  and  _354
REMARK  143  A    between atoms: _354  and  _355
REMARK  144  A    between atoms: _357  and  _359
REMARK  145  A    between atoms: _359  and  _360
REMARK  146  A    between atoms: _359  and  _362
REMARK  147  A    between atoms: _362  and  _363
REMARK  148  A    between atoms: _369  and  _371
REMARK  149  A    between atoms: _371  and  _372
REMARK  150  A    between atoms: _371  and  _374
REMARK  151  A    between atoms: _374  and  _375
REMARK  152  A    between atoms: _375  and  _376
REMARK  153  A    between atoms: _379  and  _381
REMARK  154  A    between atoms: _381  and  _382
REMARK  155  A    between atoms: _381  and  _384
REMARK  156  A    between atoms: _384  and  _385
REMARK  157  A    between atoms: _385  and  _386
REMARK  158  A    between atoms: _391  and  _393
REMARK  159  A    between atoms: _393  and  _394
REMARK  160  A    between atoms: _397  and  _399
REMARK  161  A    between atoms: _399  and  _400
REMARK  162  A    between atoms: _399  and  _402
REMARK  163  A    between atoms: _402  and  _403
REMARK  164  A    between atoms: _406  and  _408
REMARK  165  A    between atoms: _408  and  _409
REMARK  166  A    between atoms: _411  and  _413
REMARK  167  A    between atoms: _413  and  _414
REMARK  168  A    between atoms: _413  and  _416
REMARK  169  A    between atoms: _419  and  _421
REMARK  170  A    between atoms: _421  and  _422
REMARK  171  A    between atoms: _421  and  _424
REMARK  172  A    between atoms: _424  and  _425
REMARK  173  A    between atoms: _425  and  _426
REMARK  174  A    between atoms: _431  and  _433
REMARK  175  A    between atoms: _433  and  _434
REMARK  176  A    between atoms: _433  and  _436
REMARK  177  A    between atoms: _436  and  _437
REMARK  178  A    between atoms: _440  and  _442
REMARK  179  A    between atoms: _442  and  _443
REMARK  180  A    between atoms: _442  and  _445
REMARK  181  A    between atoms: _448  and  _450
REMARK  182  A    between atoms: _450  and  _451
REMARK  183  A    between atoms: _450  and  _453
REMARK  184  A    between atoms: _453  and  _454
REMARK  185  A    between atoms: _457  and  _459
REMARK  186  A    between atoms: _459  and  _460
REMARK  187  A    between atoms: _459  and  _462
REMARK  188  A    between atoms: _462  and  _463
REMARK  189  A    between atoms: _466  and  _468
REMARK  190  A    between atoms: _468  and  _469
REMARK  191  A    between atoms: _471  and  _473
REMARK  192  A    between atoms: _473  and  _474
REMARK  193  A    between atoms: _477  and  _479
REMARK  194  A    between atoms: _479  and  _480
REMARK  195  A    between atoms: _479  and  _482
REMARK  196  A    between atoms: _482  and  _483
REMARK  197  A    between atoms: _485  and  _487
REMARK  198  A    between atoms: _487  and  _488
REMARK  199  A    between atoms: _487  and  _490
REMARK  200  A    between atoms: _490  and  _491
REMARK  201  A    between atoms: _496  and  _497
REMARK  202  A    between atoms: _499  and  _501
REMARK  203  A    between atoms: _501  and  _502
REMARK  204  A    between atoms: _501  and  _504
REMARK  205  A    between atoms: _504  and  _505
REMARK  206  A    between atoms: _508  and  _510
REMARK  207  A    between atoms: _510  and  _511
REMARK  208  A    between atoms: _510  and  _513
REMARK  209  A    between atoms: _513  and  _514
REMARK  210  A    between atoms: _516  and  _518
REMARK  211  A    between atoms: _518  and  _519
REMARK  212  A    between atoms: _521  and  _523
REMARK  213  A    between atoms: _523  and  _524
REMARK  214  A    between atoms: _523  and  _526
REMARK  215  A    between atoms: _526  and  _527
REMARK  216  A    between atoms: _533  and  _535
REMARK  217  A    between atoms: _535  and  _536
REMARK  218  A    between atoms: _535  and  _538
REMARK  219  A    between atoms: _538  and  _539
REMARK  220  A    between atoms: _542  and  _544
REMARK  221  A    between atoms: _544  and  _545
REMARK  222  A    between atoms: _548  and  _550
REMARK  223  A    between atoms: _550  and  _551
REMARK  224  A    between atoms: _550  and  _553
REMARK  225  A    between atoms: _553  and  _554
REMARK  226  A    between atoms: _557  and  _559
REMARK  227  A    between atoms: _559  and  _560
REMARK  228  A    between atoms: _559  and  _562
REMARK  229  A    between atoms: _562  and  _563
REMARK  230  A    between atoms: _568  and  _570
REMARK  231  A    between atoms: _570  and  _571
REMARK  232  A    between atoms: _574  and  _576
REMARK  233  A    between atoms: _576  and  _577
REMARK  234  A    between atoms: _576  and  _579
REMARK  235  A    between atoms: _579  and  _580
REMARK  236  A    between atoms: _580  and  _581
REMARK  237  A    between atoms: _583  and  _585
REMARK  238  A    between atoms: _585  and  _586
REMARK  239  A    between atoms: _585  and  _588
REMARK  240  A    between atoms: _588  and  _589
REMARK  241  A    between atoms: _592  and  _594
REMARK  242  A    between atoms: _594  and  _595
REMARK  243  A    between atoms: _594  and  _597
REMARK  244  A    between atoms: _597  and  _598
REMARK  245  A    between atoms: _602  and  _603
REMARK  246  A    between atoms: _608  and  _610
REMARK  247  A    between atoms: _610  and  _611
REMARK  248  A    between atoms: _610  and  _613
REMARK  249  A    between atoms: _613  and  _614
REMARK  250  A    between atoms: _617  and  _619
REMARK  251  A    between atoms: _619  and  _620
REMARK  252  A    between atoms: _622  and  _624
REMARK  253  A    between atoms: _624  and  _625
REMARK  254  A    between atoms: _624  and  _627
REMARK  255  A    between atoms: _627  and  _628
REMARK  256  A    between atoms: _631  and  _633
REMARK  257  A    between atoms: _633  and  _634
REMARK  258  A    between atoms: _633  and  _636
REMARK  259  A    between atoms: _636  and  _637
REMARK  260  A    between atoms: _647  and  _649
REMARK  261  A    between atoms: _649  and  _650
REMARK  262  A    between atoms: _653  and  _655
REMARK  263  A    between atoms: _655  and  _656
REMARK  264  A    between atoms: _655  and  _658
REMARK  265  A    between atoms: _658  and  _659
REMARK  266  A    between atoms: _662  and  _664
REMARK  267  A    between atoms: _664  and  _665
REMARK  268  A    between atoms: _667  and  _669
REMARK  269  A    between atoms: _669  and  _670
REMARK  270  A    between atoms: _673  and  _675
REMARK  271  A    between atoms: _675  and  _676
REMARK  272  A    between atoms: _675  and  _678
REMARK  273  A    between atoms: _678  and  _679
REMARK  274  A    between atoms: _682  and  _684
REMARK  275  A    between atoms: _684  and  _685
REMARK  276  A    between atoms: _684  and  _687
REMARK  277  A    between atoms: _687  and  _688
REMARK                            x       y       z     vdW  Elec       q    Type
REMARK                         _______ _______ _______ _____ _____    ______ ____
ROOT
ATOM      1  O   HOH     1     -13.030 -26.423 -32.748  0.00  0.00    +0.000 OA
ENDROOT
TORSDOF 0
REMARK  Name = ../refined-set-2016/3own/3own_pocket.pdb
REMARK  277 active torsions:
REMARK  status: ('A' for Active; 'I' for Inactive)
REMARK    1  A    between atoms: _1  and  _3
REMARK    2  A    between atoms: _3  and  _4
REMARK    3  A    between atoms: _3  and  _6
REMARK    4  A    between atoms: _6  and  _7
REMARK    5  A    between atoms: _12  and  _13
REMARK    6  A    between atoms: _15  and  _17
REMARK    7  A    between atoms: _17  and  _18
REMARK    8  A    between atoms: _17  and  _20
REMARK    9  A    between atoms: _20  and  _21
REMARK   10  A    between atoms: _24  and  _26
REMARK   11  A    between atoms: _26  and  _27
REMARK   12  A    between atoms: _26  and  _29
REMARK   13  A    between atoms: _29  and  _30
REMARK   14  A    between atoms: _33  and  _35
REMARK   15  A    between atoms: _35  and  _36
REMARK   16  A    between atoms: _35  and  _38
REMARK   17  A    between atoms: _38  and  _39
REMARK   18  A    between atoms: _39  and  _40
REMARK   19  A    between atoms: _45  and  _47
REMARK   20  A    between atoms: _47  and  _48
REMARK   21  A    between atoms: _47  and  _50
REMARK   22  A    between atoms: _50  and  _51
REMARK   23  A    between atoms: _56  and  _57
REMARK   24  A    between atoms: _59  and  _61
REMARK   25  A    between atoms: _61  and  _62
REMARK   26  A    between atoms: _61  and  _64
REMARK   27  A    between atoms: _67  and  _69
REMARK   28  A    between atoms: _69  and  _70
REMARK   29  A    between atoms: _69  and  _72
REMARK   30  A    between atoms: _72  and  _73
REMARK   31  A    between atoms: _79  and  _81
REMARK   32  A    between atoms: _81  and  _82
REMARK   33  A    between atoms: _81  and  _84
REMARK   34  A    between atoms: _84  and  _85
REMARK   35  A    between atoms: _88  and  _90
REMARK   36  A    between atoms: _90  and  _91
REMARK   37  A    between atoms: _90  and  _93
REMARK   38  A    between atoms: _93  and  _94
REMARK   39  A    between atoms: _97  and  _99
REMARK   40  A    between atoms: _99  and  _100
REMARK   41  A    between atoms: _102  and  _104
REMARK   42  A    between atoms: _104  and  _105
REMARK   43  A    between atoms: _104  and  _107
REMARK   44  A    between atoms: _107  and  _108
REMARK   45  A    between atoms: _110  and  _112
REMARK   46  A    between atoms: _112  and  _113
REMARK   47  A    between atoms: _112  and  _115
REMARK   48  A    between atoms: _115  and  _116
REMARK   49  A    between atoms: _118  and  _120
REMARK   50  A    between atoms: _120  and  _121
REMARK   51  A    between atoms: _120  and  _123
REMARK   52  A    between atoms: _123  and  _124
REMARK   53  A    between atoms: _129  and  _131
REMARK   54  A    between atoms: _131  and  _132
REMARK   55  A    between atoms: _131  and  _134
REMARK   56  A    between atoms: _134  and  _135
REMARK   57  A    between atoms: _145  and  _147
REMARK   58  A    between atoms: _147  and  _148
REMARK   59  A    between atoms: _147  and  _150
REMARK   60  A    between atoms: _150  and  _151
REMARK   61  A    between atoms: _154  and  _156
REMARK   62  A    between atoms: _156  and  _157
REMARK   63  A    between atoms: _156  and  _159
REMARK   64  A    between atoms: _159  and  _160
REMARK   65  A    between atoms: _163  and  _165
REMARK   66  A    between atoms: _165  and  _166
REMARK   67  A    between atoms: _165  and  _168
REMARK   68  A    between atoms: _168  and  _169
REMARK   69  A    between atoms: _169  and  _170
REMARK   70  A    between atoms: _170  and  _171
REMARK   71  A    between atoms: _180  and  _182
REMARK   72  A    between atoms: _182  and  _183
REMARK   73  A    between atoms: _182  and  _185
REMARK   74  A    between atoms: _185  and  _186
REMARK   75  A    between atoms: _191  and  _192
REMARK   76  A    between atoms: _194  and  _196
REMARK   77  A    between atoms: _196  and  _197
REMARK   78  A    between atoms: _196  and  _199
REMARK   79  A    between atoms: _199  and  _200
REMARK   80  A    between atoms: _202  and  _204
REMARK   81  A    between atoms: _204  and  _205
REMARK   82  A    between atoms: _204  and  _207
REMARK   83  A    between atoms: _207  and  _208
REMARK   84  A    between atoms: _211  and  _213
REMARK   85  A    between atoms: _213  and  _214
REMARK   86  A    between atoms: _216  and  _218
REMARK   87  A    between atoms: _218  and  _219
REMARK   88  A    between atoms: _218  and  _221
REMARK   89  A    between atoms: _224  and  _226
REMARK   90  A    between atoms: _226  and  _227
REMARK   91  A    between atoms: _226  and  _229
REMARK   92  A    between atoms: _229  and  _230
REMARK   93  A    between atoms: _230  and  _231
REMARK   94  A    between atoms: _233  and  _235
REMARK   95  A    between atoms: _235  and  _236
REMARK   96  A    between atoms: _239  and  _241
REMARK   97  A    between atoms: _241  and  _242
REMARK   98  A    between atoms: _241  and  _244
REMARK   99  A    between atoms: _244  and  _245
REMARK  100  A    between atoms: _249  and  _250
REMARK  101  A    between atoms: _255  and  _257
REMARK  102  A    between atoms: _257  and  _258
REMARK  103  A    between atoms: _257  and  _260
REMARK  104  A    between atoms: _260  and  _261
REMARK  105  A    between atoms: _267  and  _269
REMARK  106  A    between atoms: _269  and  _270
REMARK  107  A    between atoms: _269  and  _272
REMARK  108  A    between atoms: _272  and  _273
REMARK  109  A    between atoms: _273  and  _274
REMARK  110  A    between atoms: _276  and  _278
REMARK  111  A    between atoms: _278  and  _279
REMARK  112  A    between atoms: _278  and  _281
REMARK  113  A    between atoms: _281  and  _282
REMARK  114  A    between atoms: _285  and  _287
REMARK  115  A    between atoms: _287  and  _288
REMARK  116  A    between atoms: _291  and  _293
REMARK  117  A    between atoms: _293  and  _294
REMARK  118  A    between atoms: _293  and  _296
REMARK  119  A    between atoms: _296  and  _297
REMARK  120  A    between atoms: _297  and  _298
REMARK  121  A    between atoms: _301  and  _303
REMARK  122  A    between atoms: _303  and  _304
REMARK  123  A    between atoms: _303  and  _306
REMARK  124  A    between atoms: _306  and  _307
REMARK  125  A    between atoms: _313  and  _315
REMARK  126  A    between atoms: _315  and  _316
REMARK  127  A    between atoms: _315  and  _318
REMARK  128  A    between atoms: _318  and  _319
REMARK  129  A    between atoms: _322  and  _324
REMARK  130  A    between atoms: _324  and  _325
REMARK  131  A    between atoms: _327  and  _329
REMARK  132  A    between atoms: _329  and  _330
REMARK  133  A    between atoms: _329  and  _332
REMARK  134  A    between atoms: _335  and  _337
REMARK  135  A    between atoms: _337  and  _338
REMARK  136  A    between atoms: _337  and  _340
REMARK  137  A    between atoms: _343  and  _345
REMARK  138  A    between atoms: _345  and  _346
REMARK  139  A    between atoms: _345  and  _348
REMARK  140  A    between atoms: _348  and  _349
REMARK  141  A    between atoms: _349  and  _350
REMARK  142  A    between atoms: _352  and  _354
REMARK  143  A    between atoms: _354  and  _355
REMARK  144  A    between atoms: _357  and  _359
REMARK  145  A    between atoms: _359  and  _360
REMARK  146  A    between atoms: _359  and  _362
REMARK  147  A    between atoms: _362  and  _363
REMARK  148  A    between atoms: _369  and  _371
REMARK  149  A    between atoms: _371  and  _372
REMARK  150  A    between atoms: _371  and  _374
REMARK  151  A    between atoms: _374  and  _375
REMARK  152  A    between atoms: _375  and  _376
REMARK  153  A    between atoms: _379  and  _381
REMARK  154  A    between atoms: _381  and  _382
REMARK  155  A    between atoms: _381  and  _384
REMARK  156  A    between atoms: _384  and  _385
REMARK  157  A    between atoms: _385  and  _386
REMARK  158  A    between atoms: _391  and  _393
REMARK  159  A    between atoms: _393  and  _394
REMARK  160  A    between atoms: _397  and  _399
REMARK  161  A    between atoms: _399  and  _400
REMARK  162  A    between atoms: _399  and  _402
REMARK  163  A    between atoms: _402  and  _403
REMARK  164  A    between atoms: _406  and  _408
REMARK  165  A    between atoms: _408  and  _409
REMARK  166  A    between atoms: _411  and  _413
REMARK  167  A    between atoms: _413  and  _414
REMARK  168  A    between atoms: _413  and  _416
REMARK  169  A    between atoms: _419  and  _421
REMARK  170  A    between atoms: _421  and  _422
REMARK  171  A    between atoms: _421  and  _424
REMARK  172  A    between atoms: _424  and  _425
REMARK  173  A    between atoms: _425  and  _426
REMARK  174  A    between atoms: _431  and  _433
REMARK  175  A    between atoms: _433  and  _434
REMARK  176  A    between atoms: _433  and  _436
REMARK  177  A    between atoms: _436  and  _437
REMARK  178  A    between atoms: _440  and  _442
REMARK  179  A    between atoms: _442  and  _443
REMARK  180  A    between atoms: _442  and  _445
REMARK  181  A    between atoms: _448  and  _450
REMARK  182  A    between atoms: _450  and  _451
REMARK  183  A    between atoms: _450  and  _453
REMARK  184  A    between atoms: _453  and  _454
REMARK  185  A    between atoms: _457  and  _459
REMARK  186  A    between atoms: _459  and  _460
REMARK  187  A    between atoms: _459  and  _462
REMARK  188  A    between atoms: _462  and  _463
REMARK  189  A    between atoms: _466  and  _468
REMARK  190  A    between atoms: _468  and  _469
REMARK  191  A    between atoms: _471  and  _473
REMARK  192  A    between atoms: _473  and  _474
REMARK  193  A    between atoms: _477  and  _479
REMARK  194  A    between atoms: _479  and  _480
REMARK  195  A    between atoms: _479  and  _482
REMARK  196  A    between atoms: _482  and  _483
REMARK  197  A    between atoms: _485  and  _487
REMARK  198  A    between atoms: _487  and  _488
REMARK  199  A    between atoms: _487  and  _490
REMARK  200  A    between atoms: _490  and  _491
REMARK  201  A    between atoms: _496  and  _497
REMARK  202  A    between atoms: _499  and  _501
REMARK  203  A    between atoms: _501  and  _502
REMARK  204  A    between atoms: _501  and  _504
REMARK  205  A    between atoms: _504  and  _505
REMARK  206  A    between atoms: _508  and  _510
REMARK  207  A    between atoms: _510  and  _511
REMARK  208  A    between atoms: _510  and  _513
REMARK  209  A    between atoms: _513  and  _514
REMARK  210  A    between atoms: _516  and  _518
REMARK  211  A    between atoms: _518  and  _519
REMARK  212  A    between atoms: _521  and  _523
REMARK  213  A    between atoms: _523  and  _524
REMARK  214  A    between atoms: _523  and  _526
REMARK  215  A    between atoms: _526  and  _527
REMARK  216  A    between atoms: _533  and  _535
REMARK  217  A    between atoms: _535  and  _536
REMARK  218  A    between atoms: _535  and  _538
REMARK  219  A    between atoms: _538  and  _539
REMARK  220  A    between atoms: _542  and  _544
REMARK  221  A    between atoms: _544  and  _545
REMARK  222  A    between atoms: _548  and  _550
REMARK  223  A    between atoms: _550  and  _551
REMARK  224  A    between atoms: _550  and  _553
REMARK  225  A    between atoms: _553  and  _554
REMARK  226  A    between atoms: _557  and  _559
REMARK  227  A    between atoms: _559  and  _560
REMARK  228  A    between atoms: _559  and  _562
REMARK  229  A    between atoms: _562  and  _563
REMARK  230  A    between atoms: _568  and  _570
REMARK  231  A    between atoms: _570  and  _571
REMARK  232  A    between atoms: _574  and  _576
REMARK  233  A    between atoms: _576  and  _577
REMARK  234  A    between atoms: _576  and  _579
REMARK  235  A    between atoms: _579  and  _580
REMARK  236  A    between atoms: _580  and  _581
REMARK  237  A    between atoms: _583  and  _585
REMARK  238  A    between atoms: _585  and  _586
REMARK  239  A    between atoms: _585  and  _588
REMARK  240  A    between atoms: _588  and  _589
REMARK  241  A    between atoms: _592  and  _594
REMARK  242  A    between atoms: _594  and  _595
REMARK  243  A    between atoms: _594  and  _597
REMARK  244  A    between atoms: _597  and  _598
REMARK  245  A    between atoms: _602  and  _603
REMARK  246  A    between atoms: _608  and  _610
REMARK  247  A    between atoms: _610  and  _611
REMARK  248  A    between atoms: _610  and  _613
REMARK  249  A    between atoms: _613  and  _614
REMARK  250  A    between atoms: _617  and  _619
REMARK  251  A    between atoms: _619  and  _620
REMARK  252  A    between atoms: _622  and  _624
REMARK  253  A    between atoms: _624  and  _625
REMARK  254  A    between atoms: _624  and  _627
REMARK  255  A    between atoms: _627  and  _628
REMARK  256  A    between atoms: _631  and  _633
REMARK  257  A    between atoms: _633  and  _634
REMARK  258  A    between atoms: _633  and  _636
REMARK  259  A    between atoms: _636  and  _637
REMARK  260  A    between atoms: _647  and  _649
REMARK  261  A    between atoms: _649  and  _650
REMARK  262  A    between atoms: _653  and  _655
REMARK  263  A    between atoms: _655  and  _656
REMARK  264  A    between atoms: _655  and  _658
REMARK  265  A    between atoms: _658  and  _659
REMARK  266  A    between atoms: _662  and  _664
REMARK  267  A    between atoms: _664  and  _665
REMARK  268  A    between atoms: _667  and  _669
REMARK  269  A    between atoms: _669  and  _670
REMARK  270  A    between atoms: _673  and  _675
REMARK  271  A    between atoms: _675  and  _676
REMARK  272  A    between atoms: _675  and  _678
REMARK  273  A    between atoms: _678  and  _679
REMARK  274  A    between atoms: _682  and  _684
REMARK  275  A    between atoms: _684  and  _685
REMARK  276  A    between atoms: _684  and  _687
REMARK  277  A    between atoms: _687  and  _688
REMARK                            x       y       z     vdW  Elec       q    Type
REMARK                         _______ _______ _______ _____ _____    ______ ____
ROOT
ATOM      1  O   HOH     1     -15.154 -27.495 -30.211  0.00  0.00    +0.000 OA
ENDROOT
TORSDOF 0
REMARK  Name = ../refined-set-2016/3own/3own_pocket.pdb
REMARK  277 active torsions:
REMARK  status: ('A' for Active; 'I' for Inactive)
REMARK    1  A    between atoms: _1  and  _3
REMARK    2  A    between atoms: _3  and  _4
REMARK    3  A    between atoms: _3  and  _6
REMARK    4  A    between atoms: _6  and  _7
REMARK    5  A    between atoms: _12  and  _13
REMARK    6  A    between atoms: _15  and  _17
REMARK    7  A    between atoms: _17  and  _18
REMARK    8  A    between atoms: _17  and  _20
REMARK    9  A    between atoms: _20  and  _21
REMARK   10  A    between atoms: _24  and  _26
REMARK   11  A    between atoms: _26  and  _27
REMARK   12  A    between atoms: _26  and  _29
REMARK   13  A    between atoms: _29  and  _30
REMARK   14  A    between atoms: _33  and  _35
REMARK   15  A    between atoms: _35  and  _36
REMARK   16  A    between atoms: _35  and  _38
REMARK   17  A    between atoms: _38  and  _39
REMARK   18  A    between atoms: _39  and  _40
REMARK   19  A    between atoms: _45  and  _47
REMARK   20  A    between atoms: _47  and  _48
REMARK   21  A    between atoms: _47  and  _50
REMARK   22  A    between atoms: _50  and  _51
REMARK   23  A    between atoms: _56  and  _57
REMARK   24  A    between atoms: _59  and  _61
REMARK   25  A    between atoms: _61  and  _62
REMARK   26  A    between atoms: _61  and  _64
REMARK   27  A    between atoms: _67  and  _69
REMARK   28  A    between atoms: _69  and  _70
REMARK   29  A    between atoms: _69  and  _72
REMARK   30  A    between atoms: _72  and  _73
REMARK   31  A    between atoms: _79  and  _81
REMARK   32  A    between atoms: _81  and  _82
REMARK   33  A    between atoms: _81  and  _84
REMARK   34  A    between atoms: _84  and  _85
REMARK   35  A    between atoms: _88  and  _90
REMARK   36  A    between atoms: _90  and  _91
REMARK   37  A    between atoms: _90  and  _93
REMARK   38  A    between atoms: _93  and  _94
REMARK   39  A    between atoms: _97  and  _99
REMARK   40  A    between atoms: _99  and  _100
REMARK   41  A    between atoms: _102  and  _104
REMARK   42  A    between atoms: _104  and  _105
REMARK   43  A    between atoms: _104  and  _107
REMARK   44  A    between atoms: _107  and  _108
REMARK   45  A    between atoms: _110  and  _112
REMARK   46  A    between atoms: _112  and  _113
REMARK   47  A    between atoms: _112  and  _115
REMARK   48  A    between atoms: _115  and  _116
REMARK   49  A    between atoms: _118  and  _120
REMARK   50  A    between atoms: _120  and  _121
REMARK   51  A    between atoms: _120  and  _123
REMARK   52  A    between atoms: _123  and  _124
REMARK   53  A    between atoms: _129  and  _131
REMARK   54  A    between atoms: _131  and  _132
REMARK   55  A    between atoms: _131  and  _134
REMARK   56  A    between atoms: _134  and  _135
REMARK   57  A    between atoms: _145  and  _147
REMARK   58  A    between atoms: _147  and  _148
REMARK   59  A    between atoms: _147  and  _150
REMARK   60  A    between atoms: _150  and  _151
REMARK   61  A    between atoms: _154  and  _156
REMARK   62  A    between atoms: _156  and  _157
REMARK   63  A    between atoms: _156  and  _159
REMARK   64  A    between atoms: _159  and  _160
REMARK   65  A    between atoms: _163  and  _165
REMARK   66  A    between atoms: _165  and  _166
REMARK   67  A    between atoms: _165  and  _168
REMARK   68  A    between atoms: _168  and  _169
REMARK   69  A    between atoms: _169  and  _170
REMARK   70  A    between atoms: _170  and  _171
REMARK   71  A    between atoms: _180  and  _182
REMARK   72  A    between atoms: _182  and  _183
REMARK   73  A    between atoms: _182  and  _185
REMARK   74  A    between atoms: _185  and  _186
REMARK   75  A    between atoms: _191  and  _192
REMARK   76  A    between atoms: _194  and  _196
REMARK   77  A    between atoms: _196  and  _197
REMARK   78  A    between atoms: _196  and  _199
REMARK   79  A    between atoms: _199  and  _200
REMARK   80  A    between atoms: _202  and  _204
REMARK   81  A    between atoms: _204  and  _205
REMARK   82  A    between atoms: _204  and  _207
REMARK   83  A    between atoms: _207  and  _208
REMARK   84  A    between atoms: _211  and  _213
REMARK   85  A    between atoms: _213  and  _214
REMARK   86  A    between atoms: _216  and  _218
REMARK   87  A    between atoms: _218  and  _219
REMARK   88  A    between atoms: _218  and  _221
REMARK   89  A    between atoms: _224  and  _226
REMARK   90  A    between atoms: _226  and  _227
REMARK   91  A    between atoms: _226  and  _229
REMARK   92  A    between atoms: _229  and  _230
REMARK   93  A    between atoms: _230  and  _231
REMARK   94  A    between atoms: _233  and  _235
REMARK   95  A    between atoms: _235  and  _236
REMARK   96  A    between atoms: _239  and  _241
REMARK   97  A    between atoms: _241  and  _242
REMARK   98  A    between atoms: _241  and  _244
REMARK   99  A    between atoms: _244  and  _245
REMARK  100  A    between atoms: _249  and  _250
REMARK  101  A    between atoms: _255  and  _257
REMARK  102  A    between atoms: _257  and  _258
REMARK  103  A    between atoms: _257  and  _260
REMARK  104  A    between atoms: _260  and  _261
REMARK  105  A    between atoms: _267  and  _269
REMARK  106  A    between atoms: _269  and  _270
REMARK  107  A    between atoms: _269  and  _272
REMARK  108  A    between atoms: _272  and  _273
REMARK  109  A    between atoms: _273  and  _274
REMARK  110  A    between atoms: _276  and  _278
REMARK  111  A    between atoms: _278  and  _279
REMARK  112  A    between atoms: _278  and  _281
REMARK  113  A    between atoms: _281  and  _282
REMARK  114  A    between atoms: _285  and  _287
REMARK  115  A    between atoms: _287  and  _288
REMARK  116  A    between atoms: _291  and  _293
REMARK  117  A    between atoms: _293  and  _294
REMARK  118  A    between atoms: _293  and  _296
REMARK  119  A    between atoms: _296  and  _297
REMARK  120  A    between atoms: _297  and  _298
REMARK  121  A    between atoms: _301  and  _303
REMARK  122  A    between atoms: _303  and  _304
REMARK  123  A    between atoms: _303  and  _306
REMARK  124  A    between atoms: _306  and  _307
REMARK  125  A    between atoms: _313  and  _315
REMARK  126  A    between atoms: _315  and  _316
REMARK  127  A    between atoms: _315  and  _318
REMARK  128  A    between atoms: _318  and  _319
REMARK  129  A    between atoms: _322  and  _324
REMARK  130  A    between atoms: _324  and  _325
REMARK  131  A    between atoms: _327  and  _329
REMARK  132  A    between atoms: _329  and  _330
REMARK  133  A    between atoms: _329  and  _332
REMARK  134  A    between atoms: _335  and  _337
REMARK  135  A    between atoms: _337  and  _338
REMARK  136  A    between atoms: _337  and  _340
REMARK  137  A    between atoms: _343  and  _345
REMARK  138  A    between atoms: _345  and  _346
REMARK  139  A    between atoms: _345  and  _348
REMARK  140  A    between atoms: _348  and  _349
REMARK  141  A    between atoms: _349  and  _350
REMARK  142  A    between atoms: _352  and  _354
REMARK  143  A    between atoms: _354  and  _355
REMARK  144  A    between atoms: _357  and  _359
REMARK  145  A    between atoms: _359  and  _360
REMARK  146  A    between atoms: _359  and  _362
REMARK  147  A    between atoms: _362  and  _363
REMARK  148  A    between atoms: _369  and  _371
REMARK  149  A    between atoms: _371  and  _372
REMARK  150  A    between atoms: _371  and  _374
REMARK  151  A    between atoms: _374  and  _375
REMARK  152  A    between atoms: _375  and  _376
REMARK  153  A    between atoms: _379  and  _381
REMARK  154  A    between atoms: _381  and  _382
REMARK  155  A    between atoms: _381  and  _384
REMARK  156  A    between atoms: _384  and  _385
REMARK  157  A    between atoms: _385  and  _386
REMARK  158  A    between atoms: _391  and  _393
REMARK  159  A    between atoms: _393  and  _394
REMARK  160  A    between atoms: _397  and  _399
REMARK  161  A    between atoms: _399  and  _400
REMARK  162  A    between atoms: _399  and  _402
REMARK  163  A    between atoms: _402  and  _403
REMARK  164  A    between atoms: _406  and  _408
REMARK  165  A    between atoms: _408  and  _409
REMARK  166  A    between atoms: _411  and  _413
REMARK  167  A    between atoms: _413  and  _414
REMARK  168  A    between atoms: _413  and  _416
REMARK  169  A    between atoms: _419  and  _421
REMARK  170  A    between atoms: _421  and  _422
REMARK  171  A    between atoms: _421  and  _424
REMARK  172  A    between atoms: _424  and  _425
REMARK  173  A    between atoms: _425  and  _426
REMARK  174  A    between atoms: _431  and  _433
REMARK  175  A    between atoms: _433  and  _434
REMARK  176  A    between atoms: _433  and  _436
REMARK  177  A    between atoms: _436  and  _437
REMARK  178  A    between atoms: _440  and  _442
REMARK  179  A    between atoms: _442  and  _443
REMARK  180  A    between atoms: _442  and  _445
REMARK  181  A    between atoms: _448  and  _450
REMARK  182  A    between atoms: _450  and  _451
REMARK  183  A    between atoms: _450  and  _453
REMARK  184  A    between atoms: _453  and  _454
REMARK  185  A    between atoms: _457  and  _459
REMARK  186  A    between atoms: _459  and  _460
REMARK  187  A    between atoms: _459  and  _462
REMARK  188  A    between atoms: _462  and  _463
REMARK  189  A    between atoms: _466  and  _468
REMARK  190  A    between atoms: _468  and  _469
REMARK  191  A    between atoms: _471  and  _473
REMARK  192  A    between atoms: _473  and  _474
REMARK  193  A    between atoms: _477  and  _479
REMARK  194  A    between atoms: _479  and  _480
REMARK  195  A    between atoms: _479  and  _482
REMARK  196  A    between atoms: _482  and  _483
REMARK  197  A    between atoms: _485  and  _487
REMARK  198  A    between atoms: _487  and  _488
REMARK  199  A    between atoms: _487  and  _490
REMARK  200  A    between atoms: _490  and  _491
REMARK  201  A    between atoms: _496  and  _497
REMARK  202  A    between atoms: _499  and  _501
REMARK  203  A    between atoms: _501  and  _502
REMARK  204  A    between atoms: _501  and  _504
REMARK  205  A    between atoms: _504  and  _505
REMARK  206  A    between atoms: _508  and  _510
REMARK  207  A    between atoms: _510  and  _511
REMARK  208  A    between atoms: _510  and  _513
REMARK  209  A    between atoms: _513  and  _514
REMARK  210  A    between atoms: _516  and  _518
REMARK  211  A    between atoms: _518  and  _519
REMARK  212  A    between atoms: _521  and  _523
REMARK  213  A    between atoms: _523  and  _524
REMARK  214  A    between atoms: _523  and  _526
REMARK  215  A    between atoms: _526  and  _527
REMARK  216  A    between atoms: _533  and  _535
REMARK  217  A    between atoms: _535  and  _536
REMARK  218  A    between atoms: _535  and  _538
REMARK  219  A    between atoms: _538  and  _539
REMARK  220  A    between atoms: _542  and  _544
REMARK  221  A    between atoms: _544  and  _545
REMARK  222  A    between atoms: _548  and  _550
REMARK  223  A    between atoms: _550  and  _551
REMARK  224  A    between atoms: _550  and  _553
REMARK  225  A    between atoms: _553  and  _554
REMARK  226  A    between atoms: _557  and  _559
REMARK  227  A    between atoms: _559  and  _560
REMARK  228  A    between atoms: _559  and  _562
REMARK  229  A    between atoms: _562  and  _563
REMARK  230  A    between atoms: _568  and  _570
REMARK  231  A    between atoms: _570  and  _571
REMARK  232  A    between atoms: _574  and  _576
REMARK  233  A    between atoms: _576  and  _577
REMARK  234  A    between atoms: _576  and  _579
REMARK  235  A    between atoms: _579  and  _580
REMARK  236  A    between atoms: _580  and  _581
REMARK  237  A    between atoms: _583  and  _585
REMARK  238  A    between atoms: _585  and  _586
REMARK  239  A    between atoms: _585  and  _588
REMARK  240  A    between atoms: _588  and  _589
REMARK  241  A    between atoms: _592  and  _594
REMARK  242  A    between atoms: _594  and  _595
REMARK  243  A    between atoms: _594  and  _597
REMARK  244  A    between atoms: _597  and  _598
REMARK  245  A    between atoms: _602  and  _603
REMARK  246  A    between atoms: _608  and  _610
REMARK  247  A    between atoms: _610  and  _611
REMARK  248  A    between atoms: _610  and  _613
REMARK  249  A    between atoms: _613  and  _614
REMARK  250  A    between atoms: _617  and  _619
REMARK  251  A    between atoms: _619  and  _620
REMARK  252  A    between atoms: _622  and  _624
REMARK  253  A    between atoms: _624  and  _625
REMARK  254  A    between atoms: _624  and  _627
REMARK  255  A    between atoms: _627  and  _628
REMARK  256  A    between atoms: _631  and  _633
REMARK  257  A    between atoms: _633  and  _634
REMARK  258  A    between atoms: _633  and  _636
REMARK  259  A    between atoms: _636  and  _637
REMARK  260  A    between atoms: _647  and  _649
REMARK  261  A    between atoms: _649  and  _650
REMARK  262  A    between atoms: _653  and  _655
REMARK  263  A    between atoms: _655  and  _656
REMARK  264  A    between atoms: _655  and  _658
REMARK  265  A    between atoms: _658  and  _659
REMARK  266  A    between atoms: _662  and  _664
REMARK  267  A    between atoms: _664  and  _665
REMARK  268  A    between atoms: _667  and  _669
REMARK  269  A    between atoms: _669  and  _670
REMARK  270  A    between atoms: _673  and  _675
REMARK  271  A    between atoms: _675  and  _676
REMARK  272  A    between atoms: _675  and  _678
REMARK  273  A    between atoms: _678  and  _679
REMARK  274  A    between atoms: _682  and  _684
REMARK  275  A    between atoms: _684  and  _685
REMARK  276  A    between atoms: _684  and  _687
REMARK  277  A    between atoms: _687  and  _688
REMARK                            x       y       z     vdW  Elec       q    Type
REMARK                         _______ _______ _______ _____ _____    ______ ____
ROOT
ATOM      1  O   HOH     1      -9.110 -35.438 -28.807  0.00  0.00    +0.000 OA
ENDROOT
TORSDOF 0
REMARK  Name = ../refined-set-2016/3own/3own_pocket.pdb
REMARK  277 active torsions:
REMARK  status: ('A' for Active; 'I' for Inactive)
REMARK    1  A    between atoms: _1  and  _3
REMARK    2  A    between atoms: _3  and  _4
REMARK    3  A    between atoms: _3  and  _6
REMARK    4  A    between atoms: _6  and  _7
REMARK    5  A    between atoms: _12  and  _13
REMARK    6  A    between atoms: _15  and  _17
REMARK    7  A    between atoms: _17  and  _18
REMARK    8  A    between atoms: _17  and  _20
REMARK    9  A    between atoms: _20  and  _21
REMARK   10  A    between atoms: _24  and  _26
REMARK   11  A    between atoms: _26  and  _27
REMARK   12  A    between atoms: _26  and  _29
REMARK   13  A    between atoms: _29  and  _30
REMARK   14  A    between atoms: _33  and  _35
REMARK   15  A    between atoms: _35  and  _36
REMARK   16  A    between atoms: _35  and  _38
REMARK   17  A    between atoms: _38  and  _39
REMARK   18  A    between atoms: _39  and  _40
REMARK   19  A    between atoms: _45  and  _47
REMARK   20  A    between atoms: _47  and  _48
REMARK   21  A    between atoms: _47  and  _50
REMARK   22  A    between atoms: _50  and  _51
REMARK   23  A    between atoms: _56  and  _57
REMARK   24  A    between atoms: _59  and  _61
REMARK   25  A    between atoms: _61  and  _62
REMARK   26  A    between atoms: _61  and  _64
REMARK   27  A    between atoms: _67  and  _69
REMARK   28  A    between atoms: _69  and  _70
REMARK   29  A    between atoms: _69  and  _72
REMARK   30  A    between atoms: _72  and  _73
REMARK   31  A    between atoms: _79  and  _81
REMARK   32  A    between atoms: _81  and  _82
REMARK   33  A    between atoms: _81  and  _84
REMARK   34  A    between atoms: _84  and  _85
REMARK   35  A    between atoms: _88  and  _90
REMARK   36  A    between atoms: _90  and  _91
REMARK   37  A    between atoms: _90  and  _93
REMARK   38  A    between atoms: _93  and  _94
REMARK   39  A    between atoms: _97  and  _99
REMARK   40  A    between atoms: _99  and  _100
REMARK   41  A    between atoms: _102  and  _104
REMARK   42  A    between atoms: _104  and  _105
REMARK   43  A    between atoms: _104  and  _107
REMARK   44  A    between atoms: _107  and  _108
REMARK   45  A    between atoms: _110  and  _112
REMARK   46  A    between atoms: _112  and  _113
REMARK   47  A    between atoms: _112  and  _115
REMARK   48  A    between atoms: _115  and  _116
REMARK   49  A    between atoms: _118  and  _120
REMARK   50  A    between atoms: _120  and  _121
REMARK   51  A    between atoms: _120  and  _123
REMARK   52  A    between atoms: _123  and  _124
REMARK   53  A    between atoms: _129  and  _131
REMARK   54  A    between atoms: _131  and  _132
REMARK   55  A    between atoms: _131  and  _134
REMARK   56  A    between atoms: _134  and  _135
REMARK   57  A    between atoms: _145  and  _147
REMARK   58  A    between atoms: _147  and  _148
REMARK   59  A    between atoms: _147  and  _150
REMARK   60  A    between atoms: _150  and  _151
REMARK   61  A    between atoms: _154  and  _156
REMARK   62  A    between atoms: _156  and  _157
REMARK   63  A    between atoms: _156  and  _159
REMARK   64  A    between atoms: _159  and  _160
REMARK   65  A    between atoms: _163  and  _165
REMARK   66  A    between atoms: _165  and  _166
REMARK   67  A    between atoms: _165  and  _168
REMARK   68  A    between atoms: _168  and  _169
REMARK   69  A    between atoms: _169  and  _170
REMARK   70  A    between atoms: _170  and  _171
REMARK   71  A    between atoms: _180  and  _182
REMARK   72  A    between atoms: _182  and  _183
REMARK   73  A    between atoms: _182  and  _185
REMARK   74  A    between atoms: _185  and  _186
REMARK   75  A    between atoms: _191  and  _192
REMARK   76  A    between atoms: _194  and  _196
REMARK   77  A    between atoms: _196  and  _197
REMARK   78  A    between atoms: _196  and  _199
REMARK   79  A    between atoms: _199  and  _200
REMARK   80  A    between atoms: _202  and  _204
REMARK   81  A    between atoms: _204  and  _205
REMARK   82  A    between atoms: _204  and  _207
REMARK   83  A    between atoms: _207  and  _208
REMARK   84  A    between atoms: _211  and  _213
REMARK   85  A    between atoms: _213  and  _214
REMARK   86  A    between atoms: _216  and  _218
REMARK   87  A    between atoms: _218  and  _219
REMARK   88  A    between atoms: _218  and  _221
REMARK   89  A    between atoms: _224  and  _226
REMARK   90  A    between atoms: _226  and  _227
REMARK   91  A    between atoms: _226  and  _229
REMARK   92  A    between atoms: _229  and  _230
REMARK   93  A    between atoms: _230  and  _231
REMARK   94  A    between atoms: _233  and  _235
REMARK   95  A    between atoms: _235  and  _236
REMARK   96  A    between atoms: _239  and  _241
REMARK   97  A    between atoms: _241  and  _242
REMARK   98  A    between atoms: _241  and  _244
REMARK   99  A    between atoms: _244  and  _245
REMARK  100  A    between atoms: _249  and  _250
REMARK  101  A    between atoms: _255  and  _257
REMARK  102  A    between atoms: _257  and  _258
REMARK  103  A    between atoms: _257  and  _260
REMARK  104  A    between atoms: _260  and  _261
REMARK  105  A    between atoms: _267  and  _269
REMARK  106  A    between atoms: _269  and  _270
REMARK  107  A    between atoms: _269  and  _272
REMARK  108  A    between atoms: _272  and  _273
REMARK  109  A    between atoms: _273  and  _274
REMARK  110  A    between atoms: _276  and  _278
REMARK  111  A    between atoms: _278  and  _279
REMARK  112  A    between atoms: _278  and  _281
REMARK  113  A    between atoms: _281  and  _282
REMARK  114  A    between atoms: _285  and  _287
REMARK  115  A    between atoms: _287  and  _288
REMARK  116  A    between atoms: _291  and  _293
REMARK  117  A    between atoms: _293  and  _294
REMARK  118  A    between atoms: _293  and  _296
REMARK  119  A    between atoms: _296  and  _297
REMARK  120  A    between atoms: _297  and  _298
REMARK  121  A    between atoms: _301  and  _303
REMARK  122  A    between atoms: _303  and  _304
REMARK  123  A    between atoms: _303  and  _306
REMARK  124  A    between atoms: _306  and  _307
REMARK  125  A    between atoms: _313  and  _315
REMARK  126  A    between atoms: _315  and  _316
REMARK  127  A    between atoms: _315  and  _318
REMARK  128  A    between atoms: _318  and  _319
REMARK  129  A    between atoms: _322  and  _324
REMARK  130  A    between atoms: _324  and  _325
REMARK  131  A    between atoms: _327  and  _329
REMARK  132  A    between atoms: _329  and  _330
REMARK  133  A    between atoms: _329  and  _332
REMARK  134  A    between atoms: _335  and  _337
REMARK  135  A    between atoms: _337  and  _338
REMARK  136  A    between atoms: _337  and  _340
REMARK  137  A    between atoms: _343  and  _345
REMARK  138  A    between atoms: _345  and  _346
REMARK  139  A    between atoms: _345  and  _348
REMARK  140  A    between atoms: _348  and  _349
REMARK  141  A    between atoms: _349  and  _350
REMARK  142  A    between atoms: _352  and  _354
REMARK  143  A    between atoms: _354  and  _355
REMARK  144  A    between atoms: _357  and  _359
REMARK  145  A    between atoms: _359  and  _360
REMARK  146  A    between atoms: _359  and  _362
REMARK  147  A    between atoms: _362  and  _363
REMARK  148  A    between atoms: _369  and  _371
REMARK  149  A    between atoms: _371  and  _372
REMARK  150  A    between atoms: _371  and  _374
REMARK  151  A    between atoms: _374  and  _375
REMARK  152  A    between atoms: _375  and  _376
REMARK  153  A    between atoms: _379  and  _381
REMARK  154  A    between atoms: _381  and  _382
REMARK  155  A    between atoms: _381  and  _384
REMARK  156  A    between atoms: _384  and  _385
REMARK  157  A    between atoms: _385  and  _386
REMARK  158  A    between atoms: _391  and  _393
REMARK  159  A    between atoms: _393  and  _394
REMARK  160  A    between atoms: _397  and  _399
REMARK  161  A    between atoms: _399  and  _400
REMARK  162  A    between atoms: _399  and  _402
REMARK  163  A    between atoms: _402  and  _403
REMARK  164  A    between atoms: _406  and  _408
REMARK  165  A    between atoms: _408  and  _409
REMARK  166  A    between atoms: _411  and  _413
REMARK  167  A    between atoms: _413  and  _414
REMARK  168  A    between atoms: _413  and  _416
REMARK  169  A    between atoms: _419  and  _421
REMARK  170  A    between atoms: _421  and  _422
REMARK  171  A    between atoms: _421  and  _424
REMARK  172  A    between atoms: _424  and  _425
REMARK  173  A    between atoms: _425  and  _426
REMARK  174  A    between atoms: _431  and  _433
REMARK  175  A    between atoms: _433  and  _434
REMARK  176  A    between atoms: _433  and  _436
REMARK  177  A    between atoms: _436  and  _437
REMARK  178  A    between atoms: _440  and  _442
REMARK  179  A    between atoms: _442  and  _443
REMARK  180  A    between atoms: _442  and  _445
REMARK  181  A    between atoms: _448  and  _450
REMARK  182  A    between atoms: _450  and  _451
REMARK  183  A    between atoms: _450  and  _453
REMARK  184  A    between atoms: _453  and  _454
REMARK  185  A    between atoms: _457  and  _459
REMARK  186  A    between atoms: _459  and  _460
REMARK  187  A    between atoms: _459  and  _462
REMARK  188  A    between atoms: _462  and  _463
REMARK  189  A    between atoms: _466  and  _468
REMARK  190  A    between atoms: _468  and  _469
REMARK  191  A    between atoms: _471  and  _473
REMARK  192  A    between atoms: _473  and  _474
REMARK  193  A    between atoms: _477  and  _479
REMARK  194  A    between atoms: _479  and  _480
REMARK  195  A    between atoms: _479  and  _482
REMARK  196  A    between atoms: _482  and  _483
REMARK  197  A    between atoms: _485  and  _487
REMARK  198  A    between atoms: _487  and  _488
REMARK  199  A    between atoms: _487  and  _490
REMARK  200  A    between atoms: _490  and  _491
REMARK  201  A    between atoms: _496  and  _497
REMARK  202  A    between atoms: _499  and  _501
REMARK  203  A    between atoms: _501  and  _502
REMARK  204  A    between atoms: _501  and  _504
REMARK  205  A    between atoms: _504  and  _505
REMARK  206  A    between atoms: _508  and  _510
REMARK  207  A    between atoms: _510  and  _511
REMARK  208  A    between atoms: _510  and  _513
REMARK  209  A    between atoms: _513  and  _514
REMARK  210  A    between atoms: _516  and  _518
REMARK  211  A    between atoms: _518  and  _519
REMARK  212  A    between atoms: _521  and  _523
REMARK  213  A    between atoms: _523  and  _524
REMARK  214  A    between atoms: _523  and  _526
REMARK  215  A    between atoms: _526  and  _527
REMARK  216  A    between atoms: _533  and  _535
REMARK  217  A    between atoms: _535  and  _536
REMARK  218  A    between atoms: _535  and  _538
REMARK  219  A    between atoms: _538  and  _539
REMARK  220  A    between atoms: _542  and  _544
REMARK  221  A    between atoms: _544  and  _545
REMARK  222  A    between atoms: _548  and  _550
REMARK  223  A    between atoms: _550  and  _551
REMARK  224  A    between atoms: _550  and  _553
REMARK  225  A    between atoms: _553  and  _554
REMARK  226  A    between atoms: _557  and  _559
REMARK  227  A    between atoms: _559  and  _560
REMARK  228  A    between atoms: _559  and  _562
REMARK  229  A    between atoms: _562  and  _563
REMARK  230  A    between atoms: _568  and  _570
REMARK  231  A    between atoms: _570  and  _571
REMARK  232  A    between atoms: _574  and  _576
REMARK  233  A    between atoms: _576  and  _577
REMARK  234  A    between atoms: _576  and  _579
REMARK  235  A    between atoms: _579  and  _580
REMARK  236  A    between atoms: _580  and  _581
REMARK  237  A    between atoms: _583  and  _585
REMARK  238  A    between atoms: _585  and  _586
REMARK  239  A    between atoms: _585  and  _588
REMARK  240  A    between atoms: _588  and  _589
REMARK  241  A    between atoms: _592  and  _594
REMARK  242  A    between atoms: _594  and  _595
REMARK  243  A    between atoms: _594  and  _597
REMARK  244  A    between atoms: _597  and  _598
REMARK  245  A    between atoms: _602  and  _603
REMARK  246  A    between atoms: _608  and  _610
REMARK  247  A    between atoms: _610  and  _611
REMARK  248  A    between atoms: _610  and  _613
REMARK  249  A    between atoms: _613  and  _614
REMARK  250  A    between atoms: _617  and  _619
REMARK  251  A    between atoms: _619  and  _620
REMARK  252  A    between atoms: _622  and  _624
REMARK  253  A    between atoms: _624  and  _625
REMARK  254  A    between atoms: _624  and  _627
REMARK  255  A    between atoms: _627  and  _628
REMARK  256  A    between atoms: _631  and  _633
REMARK  257  A    between atoms: _633  and  _634
REMARK  258  A    between atoms: _633  and  _636
REMARK  259  A    between atoms: _636  and  _637
REMARK  260  A    between atoms: _647  and  _649
REMARK  261  A    between atoms: _649  and  _650
REMARK  262  A    between atoms: _653  and  _655
REMARK  263  A    between atoms: _655  and  _656
REMARK  264  A    between atoms: _655  and  _658
REMARK  265  A    between atoms: _658  and  _659
REMARK  266  A    between atoms: _662  and  _664
REMARK  267  A    between atoms: _664  and  _665
REMARK  268  A    between atoms: _667  and  _669
REMARK  269  A    between atoms: _669  and  _670
REMARK  270  A    between atoms: _673  and  _675
REMARK  271  A    between atoms: _675  and  _676
REMARK  272  A    between atoms: _675  and  _678
REMARK  273  A    between atoms: _678  and  _679
REMARK  274  A    between atoms: _682  and  _684
REMARK  275  A    between atoms: _684  and  _685
REMARK  276  A    between atoms: _684  and  _687
REMARK  277  A    between atoms: _687  and  _688
REMARK                            x       y       z     vdW  Elec       q    Type
REMARK                         _______ _______ _______ _____ _____    ______ ____
ROOT
ATOM      1  O   HOH     1     -19.317 -20.607 -37.257  0.00  0.00    +0.000 OA
ENDROOT
TORSDOF 0
REMARK  Name = ../refined-set-2016/3own/3own_pocket.pdb
REMARK  277 active torsions:
REMARK  status: ('A' for Active; 'I' for Inactive)
REMARK    1  A    between atoms: _1  and  _3
REMARK    2  A    between atoms: _3  and  _4
REMARK    3  A    between atoms: _3  and  _6
REMARK    4  A    between atoms: _6  and  _7
REMARK    5  A    between atoms: _12  and  _13
REMARK    6  A    between atoms: _15  and  _17
REMARK    7  A    between atoms: _17  and  _18
REMARK    8  A    between atoms: _17  and  _20
REMARK    9  A    between atoms: _20  and  _21
REMARK   10  A    between atoms: _24  and  _26
REMARK   11  A    between atoms: _26  and  _27
REMARK   12  A    between atoms: _26  and  _29
REMARK   13  A    between atoms: _29  and  _30
REMARK   14  A    between atoms: _33  and  _35
REMARK   15  A    between atoms: _35  and  _36
REMARK   16  A    between atoms: _35  and  _38
REMARK   17  A    between atoms: _38  and  _39
REMARK   18  A    between atoms: _39  and  _40
REMARK   19  A    between atoms: _45  and  _47
REMARK   20  A    between atoms: _47  and  _48
REMARK   21  A    between atoms: _47  and  _50
REMARK   22  A    between atoms: _50  and  _51
REMARK   23  A    between atoms: _56  and  _57
REMARK   24  A    between atoms: _59  and  _61
REMARK   25  A    between atoms: _61  and  _62
REMARK   26  A    between atoms: _61  and  _64
REMARK   27  A    between atoms: _67  and  _69
REMARK   28  A    between atoms: _69  and  _70
REMARK   29  A    between atoms: _69  and  _72
REMARK   30  A    between atoms: _72  and  _73
REMARK   31  A    between atoms: _79  and  _81
REMARK   32  A    between atoms: _81  and  _82
REMARK   33  A    between atoms: _81  and  _84
REMARK   34  A    between atoms: _84  and  _85
REMARK   35  A    between atoms: _88  and  _90
REMARK   36  A    between atoms: _90  and  _91
REMARK   37  A    between atoms: _90  and  _93
REMARK   38  A    between atoms: _93  and  _94
REMARK   39  A    between atoms: _97  and  _99
REMARK   40  A    between atoms: _99  and  _100
REMARK   41  A    between atoms: _102  and  _104
REMARK   42  A    between atoms: _104  and  _105
REMARK   43  A    between atoms: _104  and  _107
REMARK   44  A    between atoms: _107  and  _108
REMARK   45  A    between atoms: _110  and  _112
REMARK   46  A    between atoms: _112  and  _113
REMARK   47  A    between atoms: _112  and  _115
REMARK   48  A    between atoms: _115  and  _116
REMARK   49  A    between atoms: _118  and  _120
REMARK   50  A    between atoms: _120  and  _121
REMARK   51  A    between atoms: _120  and  _123
REMARK   52  A    between atoms: _123  and  _124
REMARK   53  A    between atoms: _129  and  _131
REMARK   54  A    between atoms: _131  and  _132
REMARK   55  A    between atoms: _131  and  _134
REMARK   56  A    between atoms: _134  and  _135
REMARK   57  A    between atoms: _145  and  _147
REMARK   58  A    between atoms: _147  and  _148
REMARK   59  A    between atoms: _147  and  _150
REMARK   60  A    between atoms: _150  and  _151
REMARK   61  A    between atoms: _154  and  _156
REMARK   62  A    between atoms: _156  and  _157
REMARK   63  A    between atoms: _156  and  _159
REMARK   64  A    between atoms: _159  and  _160
REMARK   65  A    between atoms: _163  and  _165
REMARK   66  A    between atoms: _165  and  _166
REMARK   67  A    between atoms: _165  and  _168
REMARK   68  A    between atoms: _168  and  _169
REMARK   69  A    between atoms: _169  and  _170
REMARK   70  A    between atoms: _170  and  _171
REMARK   71  A    between atoms: _180  and  _182
REMARK   72  A    between atoms: _182  and  _183
REMARK   73  A    between atoms: _182  and  _185
REMARK   74  A    between atoms: _185  and  _186
REMARK   75  A    between atoms: _191  and  _192
REMARK   76  A    between atoms: _194  and  _196
REMARK   77  A    between atoms: _196  and  _197
REMARK   78  A    between atoms: _196  and  _199
REMARK   79  A    between atoms: _199  and  _200
REMARK   80  A    between atoms: _202  and  _204
REMARK   81  A    between atoms: _204  and  _205
REMARK   82  A    between atoms: _204  and  _207
REMARK   83  A    between atoms: _207  and  _208
REMARK   84  A    between atoms: _211  and  _213
REMARK   85  A    between atoms: _213  and  _214
REMARK   86  A    between atoms: _216  and  _218
REMARK   87  A    between atoms: _218  and  _219
REMARK   88  A    between atoms: _218  and  _221
REMARK   89  A    between atoms: _224  and  _226
REMARK   90  A    between atoms: _226  and  _227
REMARK   91  A    between atoms: _226  and  _229
REMARK   92  A    between atoms: _229  and  _230
REMARK   93  A    between atoms: _230  and  _231
REMARK   94  A    between atoms: _233  and  _235
REMARK   95  A    between atoms: _235  and  _236
REMARK   96  A    between atoms: _239  and  _241
REMARK   97  A    between atoms: _241  and  _242
REMARK   98  A    between atoms: _241  and  _244
REMARK   99  A    between atoms: _244  and  _245
REMARK  100  A    between atoms: _249  and  _250
REMARK  101  A    between atoms: _255  and  _257
REMARK  102  A    between atoms: _257  and  _258
REMARK  103  A    between atoms: _257  and  _260
REMARK  104  A    between atoms: _260  and  _261
REMARK  105  A    between atoms: _267  and  _269
REMARK  106  A    between atoms: _269  and  _270
REMARK  107  A    between atoms: _269  and  _272
REMARK  108  A    between atoms: _272  and  _273
REMARK  109  A    between atoms: _273  and  _274
REMARK  110  A    between atoms: _276  and  _278
REMARK  111  A    between atoms: _278  and  _279
REMARK  112  A    between atoms: _278  and  _281
REMARK  113  A    between atoms: _281  and  _282
REMARK  114  A    between atoms: _285  and  _287
REMARK  115  A    between atoms: _287  and  _288
REMARK  116  A    between atoms: _291  and  _293
REMARK  117  A    between atoms: _293  and  _294
REMARK  118  A    between atoms: _293  and  _296
REMARK  119  A    between atoms: _296  and  _297
REMARK  120  A    between atoms: _297  and  _298
REMARK  121  A    between atoms: _301  and  _303
REMARK  122  A    between atoms: _303  and  _304
REMARK  123  A    between atoms: _303  and  _306
REMARK  124  A    between atoms: _306  and  _307
REMARK  125  A    between atoms: _313  and  _315
REMARK  126  A    between atoms: _315  and  _316
REMARK  127  A    between atoms: _315  and  _318
REMARK  128  A    between atoms: _318  and  _319
REMARK  129  A    between atoms: _322  and  _324
REMARK  130  A    between atoms: _324  and  _325
REMARK  131  A    between atoms: _327  and  _329
REMARK  132  A    between atoms: _329  and  _330
REMARK  133  A    between atoms: _329  and  _332
REMARK  134  A    between atoms: _335  and  _337
REMARK  135  A    between atoms: _337  and  _338
REMARK  136  A    between atoms: _337  and  _340
REMARK  137  A    between atoms: _343  and  _345
REMARK  138  A    between atoms: _345  and  _346
REMARK  139  A    between atoms: _345  and  _348
REMARK  140  A    between atoms: _348  and  _349
REMARK  141  A    between atoms: _349  and  _350
REMARK  142  A    between atoms: _352  and  _354
REMARK  143  A    between atoms: _354  and  _355
REMARK  144  A    between atoms: _357  and  _359
REMARK  145  A    between atoms: _359  and  _360
REMARK  146  A    between atoms: _359  and  _362
REMARK  147  A    between atoms: _362  and  _363
REMARK  148  A    between atoms: _369  and  _371
REMARK  149  A    between atoms: _371  and  _372
REMARK  150  A    between atoms: _371  and  _374
REMARK  151  A    between atoms: _374  and  _375
REMARK  152  A    between atoms: _375  and  _376
REMARK  153  A    between atoms: _379  and  _381
REMARK  154  A    between atoms: _381  and  _382
REMARK  155  A    between atoms: _381  and  _384
REMARK  156  A    between atoms: _384  and  _385
REMARK  157  A    between atoms: _385  and  _386
REMARK  158  A    between atoms: _391  and  _393
REMARK  159  A    between atoms: _393  and  _394
REMARK  160  A    between atoms: _397  and  _399
REMARK  161  A    between atoms: _399  and  _400
REMARK  162  A    between atoms: _399  and  _402
REMARK  163  A    between atoms: _402  and  _403
REMARK  164  A    between atoms: _406  and  _408
REMARK  165  A    between atoms: _408  and  _409
REMARK  166  A    between atoms: _411  and  _413
REMARK  167  A    between atoms: _413  and  _414
REMARK  168  A    between atoms: _413  and  _416
REMARK  169  A    between atoms: _419  and  _421
REMARK  170  A    between atoms: _421  and  _422
REMARK  171  A    between atoms: _421  and  _424
REMARK  172  A    between atoms: _424  and  _425
REMARK  173  A    between atoms: _425  and  _426
REMARK  174  A    between atoms: _431  and  _433
REMARK  175  A    between atoms: _433  and  _434
REMARK  176  A    between atoms: _433  and  _436
REMARK  177  A    between atoms: _436  and  _437
REMARK  178  A    between atoms: _440  and  _442
REMARK  179  A    between atoms: _442  and  _443
REMARK  180  A    between atoms: _442  and  _445
REMARK  181  A    between atoms: _448  and  _450
REMARK  182  A    between atoms: _450  and  _451
REMARK  183  A    between atoms: _450  and  _453
REMARK  184  A    between atoms: _453  and  _454
REMARK  185  A    between atoms: _457  and  _459
REMARK  186  A    between atoms: _459  and  _460
REMARK  187  A    between atoms: _459  and  _462
REMARK  188  A    between atoms: _462  and  _463
REMARK  189  A    between atoms: _466  and  _468
REMARK  190  A    between atoms: _468  and  _469
REMARK  191  A    between atoms: _471  and  _473
REMARK  192  A    between atoms: _473  and  _474
REMARK  193  A    between atoms: _477  and  _479
REMARK  194  A    between atoms: _479  and  _480
REMARK  195  A    between atoms: _479  and  _482
REMARK  196  A    between atoms: _482  and  _483
REMARK  197  A    between atoms: _485  and  _487
REMARK  198  A    between atoms: _487  and  _488
REMARK  199  A    between atoms: _487  and  _490
REMARK  200  A    between atoms: _490  and  _491
REMARK  201  A    between atoms: _496  and  _497
REMARK  202  A    between atoms: _499  and  _501
REMARK  203  A    between atoms: _501  and  _502
REMARK  204  A    between atoms: _501  and  _504
REMARK  205  A    between atoms: _504  and  _505
REMARK  206  A    between atoms: _508  and  _510
REMARK  207  A    between atoms: _510  and  _511
REMARK  208  A    between atoms: _510  and  _513
REMARK  209  A    between atoms: _513  and  _514
REMARK  210  A    between atoms: _516  and  _518
REMARK  211  A    between atoms: _518  and  _519
REMARK  212  A    between atoms: _521  and  _523
REMARK  213  A    between atoms: _523  and  _524
REMARK  214  A    between atoms: _523  and  _526
REMARK  215  A    between atoms: _526  and  _527
REMARK  216  A    between atoms: _533  and  _535
REMARK  217  A    between atoms: _535  and  _536
REMARK  218  A    between atoms: _535  and  _538
REMARK  219  A    between atoms: _538  and  _539
REMARK  220  A    between atoms: _542  and  _544
REMARK  221  A    between atoms: _544  and  _545
REMARK  222  A    between atoms: _548  and  _550
REMARK  223  A    between atoms: _550  and  _551
REMARK  224  A    between atoms: _550  and  _553
REMARK  225  A    between atoms: _553  and  _554
REMARK  226  A    between atoms: _557  and  _559
REMARK  227  A    between atoms: _559  and  _560
REMARK  228  A    between atoms: _559  and  _562
REMARK  229  A    between atoms: _562  and  _563
REMARK  230  A    between atoms: _568  and  _570
REMARK  231  A    between atoms: _570  and  _571
REMARK  232  A    between atoms: _574  and  _576
REMARK  233  A    between atoms: _576  and  _577
REMARK  234  A    between atoms: _576  and  _579
REMARK  235  A    between atoms: _579  and  _580
REMARK  236  A    between atoms: _580  and  _581
REMARK  237  A    between atoms: _583  and  _585
REMARK  238  A    between atoms: _585  and  _586
REMARK  239  A    between atoms: _585  and  _588
REMARK  240  A    between atoms: _588  and  _589
REMARK  241  A    between atoms: _592  and  _594
REMARK  242  A    between atoms: _594  and  _595
REMARK  243  A    between atoms: _594  and  _597
REMARK  244  A    between atoms: _597  and  _598
REMARK  245  A    between atoms: _602  and  _603
REMARK  246  A    between atoms: _608  and  _610
REMARK  247  A    between atoms: _610  and  _611
REMARK  248  A    between atoms: _610  and  _613
REMARK  249  A    between atoms: _613  and  _614
REMARK  250  A    between atoms: _617  and  _619
REMARK  251  A    between atoms: _619  and  _620
REMARK  252  A    between atoms: _622  and  _624
REMARK  253  A    between atoms: _624  and  _625
REMARK  254  A    between atoms: _624  and  _627
REMARK  255  A    between atoms: _627  and  _628
REMARK  256  A    between atoms: _631  and  _633
REMARK  257  A    between atoms: _633  and  _634
REMARK  258  A    between atoms: _633  and  _636
REMARK  259  A    between atoms: _636  and  _637
REMARK  260  A    between atoms: _647  and  _649
REMARK  261  A    between atoms: _649  and  _650
REMARK  262  A    between atoms: _653  and  _655
REMARK  263  A    between atoms: _655  and  _656
REMARK  264  A    between atoms: _655  and  _658
REMARK  265  A    between atoms: _658  and  _659
REMARK  266  A    between atoms: _662  and  _664
REMARK  267  A    between atoms: _664  and  _665
REMARK  268  A    between atoms: _667  and  _669
REMARK  269  A    between atoms: _669  and  _670
REMARK  270  A    between atoms: _673  and  _675
REMARK  271  A    between atoms: _675  and  _676
REMARK  272  A    between atoms: _675  and  _678
REMARK  273  A    between atoms: _678  and  _679
REMARK  274  A    between atoms: _682  and  _684
REMARK  275  A    between atoms: _684  and  _685
REMARK  276  A    between atoms: _684  and  _687
REMARK  277  A    between atoms: _687  and  _688
REMARK                            x       y       z     vdW  Elec       q    Type
REMARK                         _______ _______ _______ _____ _____    ______ ____
ROOT
ATOM      1  O   HOH     1     -10.576 -33.321 -30.060  0.00  0.00    +0.000 OA
ENDROOT
TORSDOF 0
REMARK  Name = ../refined-set-2016/3own/3own_pocket.pdb
REMARK  277 active torsions:
REMARK  status: ('A' for Active; 'I' for Inactive)
REMARK    1  A    between atoms: _1  and  _3
REMARK    2  A    between atoms: _3  and  _4
REMARK    3  A    between atoms: _3  and  _6
REMARK    4  A    between atoms: _6  and  _7
REMARK    5  A    between atoms: _12  and  _13
REMARK    6  A    between atoms: _15  and  _17
REMARK    7  A    between atoms: _17  and  _18
REMARK    8  A    between atoms: _17  and  _20
REMARK    9  A    between atoms: _20  and  _21
REMARK   10  A    between atoms: _24  and  _26
REMARK   11  A    between atoms: _26  and  _27
REMARK   12  A    between atoms: _26  and  _29
REMARK   13  A    between atoms: _29  and  _30
REMARK   14  A    between atoms: _33  and  _35
REMARK   15  A    between atoms: _35  and  _36
REMARK   16  A    between atoms: _35  and  _38
REMARK   17  A    between atoms: _38  and  _39
REMARK   18  A    between atoms: _39  and  _40
REMARK   19  A    between atoms: _45  and  _47
REMARK   20  A    between atoms: _47  and  _48
REMARK   21  A    between atoms: _47  and  _50
REMARK   22  A    between atoms: _50  and  _51
REMARK   23  A    between atoms: _56  and  _57
REMARK   24  A    between atoms: _59  and  _61
REMARK   25  A    between atoms: _61  and  _62
REMARK   26  A    between atoms: _61  and  _64
REMARK   27  A    between atoms: _67  and  _69
REMARK   28  A    between atoms: _69  and  _70
REMARK   29  A    between atoms: _69  and  _72
REMARK   30  A    between atoms: _72  and  _73
REMARK   31  A    between atoms: _79  and  _81
REMARK   32  A    between atoms: _81  and  _82
REMARK   33  A    between atoms: _81  and  _84
REMARK   34  A    between atoms: _84  and  _85
REMARK   35  A    between atoms: _88  and  _90
REMARK   36  A    between atoms: _90  and  _91
REMARK   37  A    between atoms: _90  and  _93
REMARK   38  A    between atoms: _93  and  _94
REMARK   39  A    between atoms: _97  and  _99
REMARK   40  A    between atoms: _99  and  _100
REMARK   41  A    between atoms: _102  and  _104
REMARK   42  A    between atoms: _104  and  _105
REMARK   43  A    between atoms: _104  and  _107
REMARK   44  A    between atoms: _107  and  _108
REMARK   45  A    between atoms: _110  and  _112
REMARK   46  A    between atoms: _112  and  _113
REMARK   47  A    between atoms: _112  and  _115
REMARK   48  A    between atoms: _115  and  _116
REMARK   49  A    between atoms: _118  and  _120
REMARK   50  A    between atoms: _120  and  _121
REMARK   51  A    between atoms: _120  and  _123
REMARK   52  A    between atoms: _123  and  _124
REMARK   53  A    between atoms: _129  and  _131
REMARK   54  A    between atoms: _131  and  _132
REMARK   55  A    between atoms: _131  and  _134
REMARK   56  A    between atoms: _134  and  _135
REMARK   57  A    between atoms: _145  and  _147
REMARK   58  A    between atoms: _147  and  _148
REMARK   59  A    between atoms: _147  and  _150
REMARK   60  A    between atoms: _150  and  _151
REMARK   61  A    between atoms: _154  and  _156
REMARK   62  A    between atoms: _156  and  _157
REMARK   63  A    between atoms: _156  and  _159
REMARK   64  A    between atoms: _159  and  _160
REMARK   65  A    between atoms: _163  and  _165
REMARK   66  A    between atoms: _165  and  _166
REMARK   67  A    between atoms: _165  and  _168
REMARK   68  A    between atoms: _168  and  _169
REMARK   69  A    between atoms: _169  and  _170
REMARK   70  A    between atoms: _170  and  _171
REMARK   71  A    between atoms: _180  and  _182
REMARK   72  A    between atoms: _182  and  _183
REMARK   73  A    between atoms: _182  and  _185
REMARK   74  A    between atoms: _185  and  _186
REMARK   75  A    between atoms: _191  and  _192
REMARK   76  A    between atoms: _194  and  _196
REMARK   77  A    between atoms: _196  and  _197
REMARK   78  A    between atoms: _196  and  _199
REMARK   79  A    between atoms: _199  and  _200
REMARK   80  A    between atoms: _202  and  _204
REMARK   81  A    between atoms: _204  and  _205
REMARK   82  A    between atoms: _204  and  _207
REMARK   83  A    between atoms: _207  and  _208
REMARK   84  A    between atoms: _211  and  _213
REMARK   85  A    between atoms: _213  and  _214
REMARK   86  A    between atoms: _216  and  _218
REMARK   87  A    between atoms: _218  and  _219
REMARK   88  A    between atoms: _218  and  _221
REMARK   89  A    between atoms: _224  and  _226
REMARK   90  A    between atoms: _226  and  _227
REMARK   91  A    between atoms: _226  and  _229
REMARK   92  A    between atoms: _229  and  _230
REMARK   93  A    between atoms: _230  and  _231
REMARK   94  A    between atoms: _233  and  _235
REMARK   95  A    between atoms: _235  and  _236
REMARK   96  A    between atoms: _239  and  _241
REMARK   97  A    between atoms: _241  and  _242
REMARK   98  A    between atoms: _241  and  _244
REMARK   99  A    between atoms: _244  and  _245
REMARK  100  A    between atoms: _249  and  _250
REMARK  101  A    between atoms: _255  and  _257
REMARK  102  A    between atoms: _257  and  _258
REMARK  103  A    between atoms: _257  and  _260
REMARK  104  A    between atoms: _260  and  _261
REMARK  105  A    between atoms: _267  and  _269
REMARK  106  A    between atoms: _269  and  _270
REMARK  107  A    between atoms: _269  and  _272
REMARK  108  A    between atoms: _272  and  _273
REMARK  109  A    between atoms: _273  and  _274
REMARK  110  A    between atoms: _276  and  _278
REMARK  111  A    between atoms: _278  and  _279
REMARK  112  A    between atoms: _278  and  _281
REMARK  113  A    between atoms: _281  and  _282
REMARK  114  A    between atoms: _285  and  _287
REMARK  115  A    between atoms: _287  and  _288
REMARK  116  A    between atoms: _291  and  _293
REMARK  117  A    between atoms: _293  and  _294
REMARK  118  A    between atoms: _293  and  _296
REMARK  119  A    between atoms: _296  and  _297
REMARK  120  A    between atoms: _297  and  _298
REMARK  121  A    between atoms: _301  and  _303
REMARK  122  A    between atoms: _303  and  _304
REMARK  123  A    between atoms: _303  and  _306
REMARK  124  A    between atoms: _306  and  _307
REMARK  125  A    between atoms: _313  and  _315
REMARK  126  A    between atoms: _315  and  _316
REMARK  127  A    between atoms: _315  and  _318
REMARK  128  A    between atoms: _318  and  _319
REMARK  129  A    between atoms: _322  and  _324
REMARK  130  A    between atoms: _324  and  _325
REMARK  131  A    between atoms: _327  and  _329
REMARK  132  A    between atoms: _329  and  _330
REMARK  133  A    between atoms: _329  and  _332
REMARK  134  A    between atoms: _335  and  _337
REMARK  135  A    between atoms: _337  and  _338
REMARK  136  A    between atoms: _337  and  _340
REMARK  137  A    between atoms: _343  and  _345
REMARK  138  A    between atoms: _345  and  _346
REMARK  139  A    between atoms: _345  and  _348
REMARK  140  A    between atoms: _348  and  _349
REMARK  141  A    between atoms: _349  and  _350
REMARK  142  A    between atoms: _352  and  _354
REMARK  143  A    between atoms: _354  and  _355
REMARK  144  A    between atoms: _357  and  _359
REMARK  145  A    between atoms: _359  and  _360
REMARK  146  A    between atoms: _359  and  _362
REMARK  147  A    between atoms: _362  and  _363
REMARK  148  A    between atoms: _369  and  _371
REMARK  149  A    between atoms: _371  and  _372
REMARK  150  A    between atoms: _371  and  _374
REMARK  151  A    between atoms: _374  and  _375
REMARK  152  A    between atoms: _375  and  _376
REMARK  153  A    between atoms: _379  and  _381
REMARK  154  A    between atoms: _381  and  _382
REMARK  155  A    between atoms: _381  and  _384
REMARK  156  A    between atoms: _384  and  _385
REMARK  157  A    between atoms: _385  and  _386
REMARK  158  A    between atoms: _391  and  _393
REMARK  159  A    between atoms: _393  and  _394
REMARK  160  A    between atoms: _397  and  _399
REMARK  161  A    between atoms: _399  and  _400
REMARK  162  A    between atoms: _399  and  _402
REMARK  163  A    between atoms: _402  and  _403
REMARK  164  A    between atoms: _406  and  _408
REMARK  165  A    between atoms: _408  and  _409
REMARK  166  A    between atoms: _411  and  _413
REMARK  167  A    between atoms: _413  and  _414
REMARK  168  A    between atoms: _413  and  _416
REMARK  169  A    between atoms: _419  and  _421
REMARK  170  A    between atoms: _421  and  _422
REMARK  171  A    between atoms: _421  and  _424
REMARK  172  A    between atoms: _424  and  _425
REMARK  173  A    between atoms: _425  and  _426
REMARK  174  A    between atoms: _431  and  _433
REMARK  175  A    between atoms: _433  and  _434
REMARK  176  A    between atoms: _433  and  _436
REMARK  177  A    between atoms: _436  and  _437
REMARK  178  A    between atoms: _440  and  _442
REMARK  179  A    between atoms: _442  and  _443
REMARK  180  A    between atoms: _442  and  _445
REMARK  181  A    between atoms: _448  and  _450
REMARK  182  A    between atoms: _450  and  _451
REMARK  183  A    between atoms: _450  and  _453
REMARK  184  A    between atoms: _453  and  _454
REMARK  185  A    between atoms: _457  and  _459
REMARK  186  A    between atoms: _459  and  _460
REMARK  187  A    between atoms: _459  and  _462
REMARK  188  A    between atoms: _462  and  _463
REMARK  189  A    between atoms: _466  and  _468
REMARK  190  A    between atoms: _468  and  _469
REMARK  191  A    between atoms: _471  and  _473
REMARK  192  A    between atoms: _473  and  _474
REMARK  193  A    between atoms: _477  and  _479
REMARK  194  A    between atoms: _479  and  _480
REMARK  195  A    between atoms: _479  and  _482
REMARK  196  A    between atoms: _482  and  _483
REMARK  197  A    between atoms: _485  and  _487
REMARK  198  A    between atoms: _487  and  _488
REMARK  199  A    between atoms: _487  and  _490
REMARK  200  A    between atoms: _490  and  _491
REMARK  201  A    between atoms: _496  and  _497
REMARK  202  A    between atoms: _499  and  _501
REMARK  203  A    between atoms: _501  and  _502
REMARK  204  A    between atoms: _501  and  _504
REMARK  205  A    between atoms: _504  and  _505
REMARK  206  A    between atoms: _508  and  _510
REMARK  207  A    between atoms: _510  and  _511
REMARK  208  A    between atoms: _510  and  _513
REMARK  209  A    between atoms: _513  and  _514
REMARK  210  A    between atoms: _516  and  _518
REMARK  211  A    between atoms: _518  and  _519
REMARK  212  A    between atoms: _521  and  _523
REMARK  213  A    between atoms: _523  and  _524
REMARK  214  A    between atoms: _523  and  _526
REMARK  215  A    between atoms: _526  and  _527
REMARK  216  A    between atoms: _533  and  _535
REMARK  217  A    between atoms: _535  and  _536
REMARK  218  A    between atoms: _535  and  _538
REMARK  219  A    between atoms: _538  and  _539
REMARK  220  A    between atoms: _542  and  _544
REMARK  221  A    between atoms: _544  and  _545
REMARK  222  A    between atoms: _548  and  _550
REMARK  223  A    between atoms: _550  and  _551
REMARK  224  A    between atoms: _550  and  _553
REMARK  225  A    between atoms: _553  and  _554
REMARK  226  A    between atoms: _557  and  _559
REMARK  227  A    between atoms: _559  and  _560
REMARK  228  A    between atoms: _559  and  _562
REMARK  229  A    between atoms: _562  and  _563
REMARK  230  A    between atoms: _568  and  _570
REMARK  231  A    between atoms: _570  and  _571
REMARK  232  A    between atoms: _574  and  _576
REMARK  233  A    between atoms: _576  and  _577
REMARK  234  A    between atoms: _576  and  _579
REMARK  235  A    between atoms: _579  and  _580
REMARK  236  A    between atoms: _580  and  _581
REMARK  237  A    between atoms: _583  and  _585
REMARK  238  A    between atoms: _585  and  _586
REMARK  239  A    between atoms: _585  and  _588
REMARK  240  A    between atoms: _588  and  _589
REMARK  241  A    between atoms: _592  and  _594
REMARK  242  A    between atoms: _594  and  _595
REMARK  243  A    between atoms: _594  and  _597
REMARK  244  A    between atoms: _597  and  _598
REMARK  245  A    between atoms: _602  and  _603
REMARK  246  A    between atoms: _608  and  _610
REMARK  247  A    between atoms: _610  and  _611
REMARK  248  A    between atoms: _610  and  _613
REMARK  249  A    between atoms: _613  and  _614
REMARK  250  A    between atoms: _617  and  _619
REMARK  251  A    between atoms: _619  and  _620
REMARK  252  A    between atoms: _622  and  _624
REMARK  253  A    between atoms: _624  and  _625
REMARK  254  A    between atoms: _624  and  _627
REMARK  255  A    between atoms: _627  and  _628
REMARK  256  A    between atoms: _631  and  _633
REMARK  257  A    between atoms: _633  and  _634
REMARK  258  A    between atoms: _633  and  _636
REMARK  259  A    between atoms: _636  and  _637
REMARK  260  A    between atoms: _647  and  _649
REMARK  261  A    between atoms: _649  and  _650
REMARK  262  A    between atoms: _653  and  _655
REMARK  263  A    between atoms: _655  and  _656
REMARK  264  A    between atoms: _655  and  _658
REMARK  265  A    between atoms: _658  and  _659
REMARK  266  A    between atoms: _662  and  _664
REMARK  267  A    between atoms: _664  and  _665
REMARK  268  A    between atoms: _667  and  _669
REMARK  269  A    between atoms: _669  and  _670
REMARK  270  A    between atoms: _673  and  _675
REMARK  271  A    between atoms: _675  and  _676
REMARK  272  A    between atoms: _675  and  _678
REMARK  273  A    between atoms: _678  and  _679
REMARK  274  A    between atoms: _682  and  _684
REMARK  275  A    between atoms: _684  and  _685
REMARK  276  A    between atoms: _684  and  _687
REMARK  277  A    between atoms: _687  and  _688
REMARK                            x       y       z     vdW  Elec       q    Type
REMARK                         _______ _______ _______ _____ _____    ______ ____
ROOT
ATOM      1  O   HOH     1      -3.725 -18.885 -30.311  0.00  0.00    +0.000 OA
ENDROOT
TORSDOF 0
REMARK  Name = ../refined-set-2016/3own/3own_pocket.pdb
REMARK  277 active torsions:
REMARK  status: ('A' for Active; 'I' for Inactive)
REMARK    1  A    between atoms: _1  and  _3
REMARK    2  A    between atoms: _3  and  _4
REMARK    3  A    between atoms: _3  and  _6
REMARK    4  A    between atoms: _6  and  _7
REMARK    5  A    between atoms: _12  and  _13
REMARK    6  A    between atoms: _15  and  _17
REMARK    7  A    between atoms: _17  and  _18
REMARK    8  A    between atoms: _17  and  _20
REMARK    9  A    between atoms: _20  and  _21
REMARK   10  A    between atoms: _24  and  _26
REMARK   11  A    between atoms: _26  and  _27
REMARK   12  A    between atoms: _26  and  _29
REMARK   13  A    between atoms: _29  and  _30
REMARK   14  A    between atoms: _33  and  _35
REMARK   15  A    between atoms: _35  and  _36
REMARK   16  A    between atoms: _35  and  _38
REMARK   17  A    between atoms: _38  and  _39
REMARK   18  A    between atoms: _39  and  _40
REMARK   19  A    between atoms: _45  and  _47
REMARK   20  A    between atoms: _47  and  _48
REMARK   21  A    between atoms: _47  and  _50
REMARK   22  A    between atoms: _50  and  _51
REMARK   23  A    between atoms: _56  and  _57
REMARK   24  A    between atoms: _59  and  _61
REMARK   25  A    between atoms: _61  and  _62
REMARK   26  A    between atoms: _61  and  _64
REMARK   27  A    between atoms: _67  and  _69
REMARK   28  A    between atoms: _69  and  _70
REMARK   29  A    between atoms: _69  and  _72
REMARK   30  A    between atoms: _72  and  _73
REMARK   31  A    between atoms: _79  and  _81
REMARK   32  A    between atoms: _81  and  _82
REMARK   33  A    between atoms: _81  and  _84
REMARK   34  A    between atoms: _84  and  _85
REMARK   35  A    between atoms: _88  and  _90
REMARK   36  A    between atoms: _90  and  _91
REMARK   37  A    between atoms: _90  and  _93
REMARK   38  A    between atoms: _93  and  _94
REMARK   39  A    between atoms: _97  and  _99
REMARK   40  A    between atoms: _99  and  _100
REMARK   41  A    between atoms: _102  and  _104
REMARK   42  A    between atoms: _104  and  _105
REMARK   43  A    between atoms: _104  and  _107
REMARK   44  A    between atoms: _107  and  _108
REMARK   45  A    between atoms: _110  and  _112
REMARK   46  A    between atoms: _112  and  _113
REMARK   47  A    between atoms: _112  and  _115
REMARK   48  A    between atoms: _115  and  _116
REMARK   49  A    between atoms: _118  and  _120
REMARK   50  A    between atoms: _120  and  _121
REMARK   51  A    between atoms: _120  and  _123
REMARK   52  A    between atoms: _123  and  _124
REMARK   53  A    between atoms: _129  and  _131
REMARK   54  A    between atoms: _131  and  _132
REMARK   55  A    between atoms: _131  and  _134
REMARK   56  A    between atoms: _134  and  _135
REMARK   57  A    between atoms: _145  and  _147
REMARK   58  A    between atoms: _147  and  _148
REMARK   59  A    between atoms: _147  and  _150
REMARK   60  A    between atoms: _150  and  _151
REMARK   61  A    between atoms: _154  and  _156
REMARK   62  A    between atoms: _156  and  _157
REMARK   63  A    between atoms: _156  and  _159
REMARK   64  A    between atoms: _159  and  _160
REMARK   65  A    between atoms: _163  and  _165
REMARK   66  A    between atoms: _165  and  _166
REMARK   67  A    between atoms: _165  and  _168
REMARK   68  A    between atoms: _168  and  _169
REMARK   69  A    between atoms: _169  and  _170
REMARK   70  A    between atoms: _170  and  _171
REMARK   71  A    between atoms: _180  and  _182
REMARK   72  A    between atoms: _182  and  _183
REMARK   73  A    between atoms: _182  and  _185
REMARK   74  A    between atoms: _185  and  _186
REMARK   75  A    between atoms: _191  and  _192
REMARK   76  A    between atoms: _194  and  _196
REMARK   77  A    between atoms: _196  and  _197
REMARK   78  A    between atoms: _196  and  _199
REMARK   79  A    between atoms: _199  and  _200
REMARK   80  A    between atoms: _202  and  _204
REMARK   81  A    between atoms: _204  and  _205
REMARK   82  A    between atoms: _204  and  _207
REMARK   83  A    between atoms: _207  and  _208
REMARK   84  A    between atoms: _211  and  _213
REMARK   85  A    between atoms: _213  and  _214
REMARK   86  A    between atoms: _216  and  _218
REMARK   87  A    between atoms: _218  and  _219
REMARK   88  A    between atoms: _218  and  _221
REMARK   89  A    between atoms: _224  and  _226
REMARK   90  A    between atoms: _226  and  _227
REMARK   91  A    between atoms: _226  and  _229
REMARK   92  A    between atoms: _229  and  _230
REMARK   93  A    between atoms: _230  and  _231
REMARK   94  A    between atoms: _233  and  _235
REMARK   95  A    between atoms: _235  and  _236
REMARK   96  A    between atoms: _239  and  _241
REMARK   97  A    between atoms: _241  and  _242
REMARK   98  A    between atoms: _241  and  _244
REMARK   99  A    between atoms: _244  and  _245
REMARK  100  A    between atoms: _249  and  _250
REMARK  101  A    between atoms: _255  and  _257
REMARK  102  A    between atoms: _257  and  _258
REMARK  103  A    between atoms: _257  and  _260
REMARK  104  A    between atoms: _260  and  _261
REMARK  105  A    between atoms: _267  and  _269
REMARK  106  A    between atoms: _269  and  _270
REMARK  107  A    between atoms: _269  and  _272
REMARK  108  A    between atoms: _272  and  _273
REMARK  109  A    between atoms: _273  and  _274
REMARK  110  A    between atoms: _276  and  _278
REMARK  111  A    between atoms: _278  and  _279
REMARK  112  A    between atoms: _278  and  _281
REMARK  113  A    between atoms: _281  and  _282
REMARK  114  A    between atoms: _285  and  _287
REMARK  115  A    between atoms: _287  and  _288
REMARK  116  A    between atoms: _291  and  _293
REMARK  117  A    between atoms: _293  and  _294
REMARK  118  A    between atoms: _293  and  _296
REMARK  119  A    between atoms: _296  and  _297
REMARK  120  A    between atoms: _297  and  _298
REMARK  121  A    between atoms: _301  and  _303
REMARK  122  A    between atoms: _303  and  _304
REMARK  123  A    between atoms: _303  and  _306
REMARK  124  A    between atoms: _306  and  _307
REMARK  125  A    between atoms: _313  and  _315
REMARK  126  A    between atoms: _315  and  _316
REMARK  127  A    between atoms: _315  and  _318
REMARK  128  A    between atoms: _318  and  _319
REMARK  129  A    between atoms: _322  and  _324
REMARK  130  A    between atoms: _324  and  _325
REMARK  131  A    between atoms: _327  and  _329
REMARK  132  A    between atoms: _329  and  _330
REMARK  133  A    between atoms: _329  and  _332
REMARK  134  A    between atoms: _335  and  _337
REMARK  135  A    between atoms: _337  and  _338
REMARK  136  A    between atoms: _337  and  _340
REMARK  137  A    between atoms: _343  and  _345
REMARK  138  A    between atoms: _345  and  _346
REMARK  139  A    between atoms: _345  and  _348
REMARK  140  A    between atoms: _348  and  _349
REMARK  141  A    between atoms: _349  and  _350
REMARK  142  A    between atoms: _352  and  _354
REMARK  143  A    between atoms: _354  and  _355
REMARK  144  A    between atoms: _357  and  _359
REMARK  145  A    between atoms: _359  and  _360
REMARK  146  A    between atoms: _359  and  _362
REMARK  147  A    between atoms: _362  and  _363
REMARK  148  A    between atoms: _369  and  _371
REMARK  149  A    between atoms: _371  and  _372
REMARK  150  A    between atoms: _371  and  _374
REMARK  151  A    between atoms: _374  and  _375
REMARK  152  A    between atoms: _375  and  _376
REMARK  153  A    between atoms: _379  and  _381
REMARK  154  A    between atoms: _381  and  _382
REMARK  155  A    between atoms: _381  and  _384
REMARK  156  A    between atoms: _384  and  _385
REMARK  157  A    between atoms: _385  and  _386
REMARK  158  A    between atoms: _391  and  _393
REMARK  159  A    between atoms: _393  and  _394
REMARK  160  A    between atoms: _397  and  _399
REMARK  161  A    between atoms: _399  and  _400
REMARK  162  A    between atoms: _399  and  _402
REMARK  163  A    between atoms: _402  and  _403
REMARK  164  A    between atoms: _406  and  _408
REMARK  165  A    between atoms: _408  and  _409
REMARK  166  A    between atoms: _411  and  _413
REMARK  167  A    between atoms: _413  and  _414
REMARK  168  A    between atoms: _413  and  _416
REMARK  169  A    between atoms: _419  and  _421
REMARK  170  A    between atoms: _421  and  _422
REMARK  171  A    between atoms: _421  and  _424
REMARK  172  A    between atoms: _424  and  _425
REMARK  173  A    between atoms: _425  and  _426
REMARK  174  A    between atoms: _431  and  _433
REMARK  175  A    between atoms: _433  and  _434
REMARK  176  A    between atoms: _433  and  _436
REMARK  177  A    between atoms: _436  and  _437
REMARK  178  A    between atoms: _440  and  _442
REMARK  179  A    between atoms: _442  and  _443
REMARK  180  A    between atoms: _442  and  _445
REMARK  181  A    between atoms: _448  and  _450
REMARK  182  A    between atoms: _450  and  _451
REMARK  183  A    between atoms: _450  and  _453
REMARK  184  A    between atoms: _453  and  _454
REMARK  185  A    between atoms: _457  and  _459
REMARK  186  A    between atoms: _459  and  _460
REMARK  187  A    between atoms: _459  and  _462
REMARK  188  A    between atoms: _462  and  _463
REMARK  189  A    between atoms: _466  and  _468
REMARK  190  A    between atoms: _468  and  _469
REMARK  191  A    between atoms: _471  and  _473
REMARK  192  A    between atoms: _473  and  _474
REMARK  193  A    between atoms: _477  and  _479
REMARK  194  A    between atoms: _479  and  _480
REMARK  195  A    between atoms: _479  and  _482
REMARK  196  A    between atoms: _482  and  _483
REMARK  197  A    between atoms: _485  and  _487
REMARK  198  A    between atoms: _487  and  _488
REMARK  199  A    between atoms: _487  and  _490
REMARK  200  A    between atoms: _490  and  _491
REMARK  201  A    between atoms: _496  and  _497
REMARK  202  A    between atoms: _499  and  _501
REMARK  203  A    between atoms: _501  and  _502
REMARK  204  A    between atoms: _501  and  _504
REMARK  205  A    between atoms: _504  and  _505
REMARK  206  A    between atoms: _508  and  _510
REMARK  207  A    between atoms: _510  and  _511
REMARK  208  A    between atoms: _510  and  _513
REMARK  209  A    between atoms: _513  and  _514
REMARK  210  A    between atoms: _516  and  _518
REMARK  211  A    between atoms: _518  and  _519
REMARK  212  A    between atoms: _521  and  _523
REMARK  213  A    between atoms: _523  and  _524
REMARK  214  A    between atoms: _523  and  _526
REMARK  215  A    between atoms: _526  and  _527
REMARK  216  A    between atoms: _533  and  _535
REMARK  217  A    between atoms: _535  and  _536
REMARK  218  A    between atoms: _535  and  _538
REMARK  219  A    between atoms: _538  and  _539
REMARK  220  A    between atoms: _542  and  _544
REMARK  221  A    between atoms: _544  and  _545
REMARK  222  A    between atoms: _548  and  _550
REMARK  223  A    between atoms: _550  and  _551
REMARK  224  A    between atoms: _550  and  _553
REMARK  225  A    between atoms: _553  and  _554
REMARK  226  A    between atoms: _557  and  _559
REMARK  227  A    between atoms: _559  and  _560
REMARK  228  A    between atoms: _559  and  _562
REMARK  229  A    between atoms: _562  and  _563
REMARK  230  A    between atoms: _568  and  _570
REMARK  231  A    between atoms: _570  and  _571
REMARK  232  A    between atoms: _574  and  _576
REMARK  233  A    between atoms: _576  and  _577
REMARK  234  A    between atoms: _576  and  _579
REMARK  235  A    between atoms: _579  and  _580
REMARK  236  A    between atoms: _580  and  _581
REMARK  237  A    between atoms: _583  and  _585
REMARK  238  A    between atoms: _585  and  _586
REMARK  239  A    between atoms: _585  and  _588
REMARK  240  A    between atoms: _588  and  _589
REMARK  241  A    between atoms: _592  and  _594
REMARK  242  A    between atoms: _594  and  _595
REMARK  243  A    between atoms: _594  and  _597
REMARK  244  A    between atoms: _597  and  _598
REMARK  245  A    between atoms: _602  and  _603
REMARK  246  A    between atoms: _608  and  _610
REMARK  247  A    between atoms: _610  and  _611
REMARK  248  A    between atoms: _610  and  _613
REMARK  249  A    between atoms: _613  and  _614
REMARK  250  A    between atoms: _617  and  _619
REMARK  251  A    between atoms: _619  and  _620
REMARK  252  A    between atoms: _622  and  _624
REMARK  253  A    between atoms: _624  and  _625
REMARK  254  A    between atoms: _624  and  _627
REMARK  255  A    between atoms: _627  and  _628
REMARK  256  A    between atoms: _631  and  _633
REMARK  257  A    between atoms: _633  and  _634
REMARK  258  A    between atoms: _633  and  _636
REMARK  259  A    between atoms: _636  and  _637
REMARK  260  A    between atoms: _647  and  _649
REMARK  261  A    between atoms: _649  and  _650
REMARK  262  A    between atoms: _653  and  _655
REMARK  263  A    between atoms: _655  and  _656
REMARK  264  A    between atoms: _655  and  _658
REMARK  265  A    between atoms: _658  and  _659
REMARK  266  A    between atoms: _662  and  _664
REMARK  267  A    between atoms: _664  and  _665
REMARK  268  A    between atoms: _667  and  _669
REMARK  269  A    between atoms: _669  and  _670
REMARK  270  A    between atoms: _673  and  _675
REMARK  271  A    between atoms: _675  and  _676
REMARK  272  A    between atoms: _675  and  _678
REMARK  273  A    between atoms: _678  and  _679
REMARK  274  A    between atoms: _682  and  _684
REMARK  275  A    between atoms: _684  and  _685
REMARK  276  A    between atoms: _684  and  _687
REMARK  277  A    between atoms: _687  and  _688
REMARK                            x       y       z     vdW  Elec       q    Type
REMARK                         _______ _______ _______ _____ _____    ______ ____
ROOT
ATOM      1  O   HOH     1      -8.531 -39.967 -38.379  0.00  0.00    +0.000 OA
ENDROOT
TORSDOF 0
REMARK  Name = ../refined-set-2016/3own/3own_pocket.pdb
REMARK  277 active torsions:
REMARK  status: ('A' for Active; 'I' for Inactive)
REMARK    1  A    between atoms: _1  and  _3
REMARK    2  A    between atoms: _3  and  _4
REMARK    3  A    between atoms: _3  and  _6
REMARK    4  A    between atoms: _6  and  _7
REMARK    5  A    between atoms: _12  and  _13
REMARK    6  A    between atoms: _15  and  _17
REMARK    7  A    between atoms: _17  and  _18
REMARK    8  A    between atoms: _17  and  _20
REMARK    9  A    between atoms: _20  and  _21
REMARK   10  A    between atoms: _24  and  _26
REMARK   11  A    between atoms: _26  and  _27
REMARK   12  A    between atoms: _26  and  _29
REMARK   13  A    between atoms: _29  and  _30
REMARK   14  A    between atoms: _33  and  _35
REMARK   15  A    between atoms: _35  and  _36
REMARK   16  A    between atoms: _35  and  _38
REMARK   17  A    between atoms: _38  and  _39
REMARK   18  A    between atoms: _39  and  _40
REMARK   19  A    between atoms: _45  and  _47
REMARK   20  A    between atoms: _47  and  _48
REMARK   21  A    between atoms: _47  and  _50
REMARK   22  A    between atoms: _50  and  _51
REMARK   23  A    between atoms: _56  and  _57
REMARK   24  A    between atoms: _59  and  _61
REMARK   25  A    between atoms: _61  and  _62
REMARK   26  A    between atoms: _61  and  _64
REMARK   27  A    between atoms: _67  and  _69
REMARK   28  A    between atoms: _69  and  _70
REMARK   29  A    between atoms: _69  and  _72
REMARK   30  A    between atoms: _72  and  _73
REMARK   31  A    between atoms: _79  and  _81
REMARK   32  A    between atoms: _81  and  _82
REMARK   33  A    between atoms: _81  and  _84
REMARK   34  A    between atoms: _84  and  _85
REMARK   35  A    between atoms: _88  and  _90
REMARK   36  A    between atoms: _90  and  _91
REMARK   37  A    between atoms: _90  and  _93
REMARK   38  A    between atoms: _93  and  _94
REMARK   39  A    between atoms: _97  and  _99
REMARK   40  A    between atoms: _99  and  _100
REMARK   41  A    between atoms: _102  and  _104
REMARK   42  A    between atoms: _104  and  _105
REMARK   43  A    between atoms: _104  and  _107
REMARK   44  A    between atoms: _107  and  _108
REMARK   45  A    between atoms: _110  and  _112
REMARK   46  A    between atoms: _112  and  _113
REMARK   47  A    between atoms: _112  and  _115
REMARK   48  A    between atoms: _115  and  _116
REMARK   49  A    between atoms: _118  and  _120
REMARK   50  A    between atoms: _120  and  _121
REMARK   51  A    between atoms: _120  and  _123
REMARK   52  A    between atoms: _123  and  _124
REMARK   53  A    between atoms: _129  and  _131
REMARK   54  A    between atoms: _131  and  _132
REMARK   55  A    between atoms: _131  and  _134
REMARK   56  A    between atoms: _134  and  _135
REMARK   57  A    between atoms: _145  and  _147
REMARK   58  A    between atoms: _147  and  _148
REMARK   59  A    between atoms: _147  and  _150
REMARK   60  A    between atoms: _150  and  _151
REMARK   61  A    between atoms: _154  and  _156
REMARK   62  A    between atoms: _156  and  _157
REMARK   63  A    between atoms: _156  and  _159
REMARK   64  A    between atoms: _159  and  _160
REMARK   65  A    between atoms: _163  and  _165
REMARK   66  A    between atoms: _165  and  _166
REMARK   67  A    between atoms: _165  and  _168
REMARK   68  A    between atoms: _168  and  _169
REMARK   69  A    between atoms: _169  and  _170
REMARK   70  A    between atoms: _170  and  _171
REMARK   71  A    between atoms: _180  and  _182
REMARK   72  A    between atoms: _182  and  _183
REMARK   73  A    between atoms: _182  and  _185
REMARK   74  A    between atoms: _185  and  _186
REMARK   75  A    between atoms: _191  and  _192
REMARK   76  A    between atoms: _194  and  _196
REMARK   77  A    between atoms: _196  and  _197
REMARK   78  A    between atoms: _196  and  _199
REMARK   79  A    between atoms: _199  and  _200
REMARK   80  A    between atoms: _202  and  _204
REMARK   81  A    between atoms: _204  and  _205
REMARK   82  A    between atoms: _204  and  _207
REMARK   83  A    between atoms: _207  and  _208
REMARK   84  A    between atoms: _211  and  _213
REMARK   85  A    between atoms: _213  and  _214
REMARK   86  A    between atoms: _216  and  _218
REMARK   87  A    between atoms: _218  and  _219
REMARK   88  A    between atoms: _218  and  _221
REMARK   89  A    between atoms: _224  and  _226
REMARK   90  A    between atoms: _226  and  _227
REMARK   91  A    between atoms: _226  and  _229
REMARK   92  A    between atoms: _229  and  _230
REMARK   93  A    between atoms: _230  and  _231
REMARK   94  A    between atoms: _233  and  _235
REMARK   95  A    between atoms: _235  and  _236
REMARK   96  A    between atoms: _239  and  _241
REMARK   97  A    between atoms: _241  and  _242
REMARK   98  A    between atoms: _241  and  _244
REMARK   99  A    between atoms: _244  and  _245
REMARK  100  A    between atoms: _249  and  _250
REMARK  101  A    between atoms: _255  and  _257
REMARK  102  A    between atoms: _257  and  _258
REMARK  103  A    between atoms: _257  and  _260
REMARK  104  A    between atoms: _260  and  _261
REMARK  105  A    between atoms: _267  and  _269
REMARK  106  A    between atoms: _269  and  _270
REMARK  107  A    between atoms: _269  and  _272
REMARK  108  A    between atoms: _272  and  _273
REMARK  109  A    between atoms: _273  and  _274
REMARK  110  A    between atoms: _276  and  _278
REMARK  111  A    between atoms: _278  and  _279
REMARK  112  A    between atoms: _278  and  _281
REMARK  113  A    between atoms: _281  and  _282
REMARK  114  A    between atoms: _285  and  _287
REMARK  115  A    between atoms: _287  and  _288
REMARK  116  A    between atoms: _291  and  _293
REMARK  117  A    between atoms: _293  and  _294
REMARK  118  A    between atoms: _293  and  _296
REMARK  119  A    between atoms: _296  and  _297
REMARK  120  A    between atoms: _297  and  _298
REMARK  121  A    between atoms: _301  and  _303
REMARK  122  A    between atoms: _303  and  _304
REMARK  123  A    between atoms: _303  and  _306
REMARK  124  A    between atoms: _306  and  _307
REMARK  125  A    between atoms: _313  and  _315
REMARK  126  A    between atoms: _315  and  _316
REMARK  127  A    between atoms: _315  and  _318
REMARK  128  A    between atoms: _318  and  _319
REMARK  129  A    between atoms: _322  and  _324
REMARK  130  A    between atoms: _324  and  _325
REMARK  131  A    between atoms: _327  and  _329
REMARK  132  A    between atoms: _329  and  _330
REMARK  133  A    between atoms: _329  and  _332
REMARK  134  A    between atoms: _335  and  _337
REMARK  135  A    between atoms: _337  and  _338
REMARK  136  A    between atoms: _337  and  _340
REMARK  137  A    between atoms: _343  and  _345
REMARK  138  A    between atoms: _345  and  _346
REMARK  139  A    between atoms: _345  and  _348
REMARK  140  A    between atoms: _348  and  _349
REMARK  141  A    between atoms: _349  and  _350
REMARK  142  A    between atoms: _352  and  _354
REMARK  143  A    between atoms: _354  and  _355
REMARK  144  A    between atoms: _357  and  _359
REMARK  145  A    between atoms: _359  and  _360
REMARK  146  A    between atoms: _359  and  _362
REMARK  147  A    between atoms: _362  and  _363
REMARK  148  A    between atoms: _369  and  _371
REMARK  149  A    between atoms: _371  and  _372
REMARK  150  A    between atoms: _371  and  _374
REMARK  151  A    between atoms: _374  and  _375
REMARK  152  A    between atoms: _375  and  _376
REMARK  153  A    between atoms: _379  and  _381
REMARK  154  A    between atoms: _381  and  _382
REMARK  155  A    between atoms: _381  and  _384
REMARK  156  A    between atoms: _384  and  _385
REMARK  157  A    between atoms: _385  and  _386
REMARK  158  A    between atoms: _391  and  _393
REMARK  159  A    between atoms: _393  and  _394
REMARK  160  A    between atoms: _397  and  _399
REMARK  161  A    between atoms: _399  and  _400
REMARK  162  A    between atoms: _399  and  _402
REMARK  163  A    between atoms: _402  and  _403
REMARK  164  A    between atoms: _406  and  _408
REMARK  165  A    between atoms: _408  and  _409
REMARK  166  A    between atoms: _411  and  _413
REMARK  167  A    between atoms: _413  and  _414
REMARK  168  A    between atoms: _413  and  _416
REMARK  169  A    between atoms: _419  and  _421
REMARK  170  A    between atoms: _421  and  _422
REMARK  171  A    between atoms: _421  and  _424
REMARK  172  A    between atoms: _424  and  _425
REMARK  173  A    between atoms: _425  and  _426
REMARK  174  A    between atoms: _431  and  _433
REMARK  175  A    between atoms: _433  and  _434
REMARK  176  A    between atoms: _433  and  _436
REMARK  177  A    between atoms: _436  and  _437
REMARK  178  A    between atoms: _440  and  _442
REMARK  179  A    between atoms: _442  and  _443
REMARK  180  A    between atoms: _442  and  _445
REMARK  181  A    between atoms: _448  and  _450
REMARK  182  A    between atoms: _450  and  _451
REMARK  183  A    between atoms: _450  and  _453
REMARK  184  A    between atoms: _453  and  _454
REMARK  185  A    between atoms: _457  and  _459
REMARK  186  A    between atoms: _459  and  _460
REMARK  187  A    between atoms: _459  and  _462
REMARK  188  A    between atoms: _462  and  _463
REMARK  189  A    between atoms: _466  and  _468
REMARK  190  A    between atoms: _468  and  _469
REMARK  191  A    between atoms: _471  and  _473
REMARK  192  A    between atoms: _473  and  _474
REMARK  193  A    between atoms: _477  and  _479
REMARK  194  A    between atoms: _479  and  _480
REMARK  195  A    between atoms: _479  and  _482
REMARK  196  A    between atoms: _482  and  _483
REMARK  197  A    between atoms: _485  and  _487
REMARK  198  A    between atoms: _487  and  _488
REMARK  199  A    between atoms: _487  and  _490
REMARK  200  A    between atoms: _490  and  _491
REMARK  201  A    between atoms: _496  and  _497
REMARK  202  A    between atoms: _499  and  _501
REMARK  203  A    between atoms: _501  and  _502
REMARK  204  A    between atoms: _501  and  _504
REMARK  205  A    between atoms: _504  and  _505
REMARK  206  A    between atoms: _508  and  _510
REMARK  207  A    between atoms: _510  and  _511
REMARK  208  A    between atoms: _510  and  _513
REMARK  209  A    between atoms: _513  and  _514
REMARK  210  A    between atoms: _516  and  _518
REMARK  211  A    between atoms: _518  and  _519
REMARK  212  A    between atoms: _521  and  _523
REMARK  213  A    between atoms: _523  and  _524
REMARK  214  A    between atoms: _523  and  _526
REMARK  215  A    between atoms: _526  and  _527
REMARK  216  A    between atoms: _533  and  _535
REMARK  217  A    between atoms: _535  and  _536
REMARK  218  A    between atoms: _535  and  _538
REMARK  219  A    between atoms: _538  and  _539
REMARK  220  A    between atoms: _542  and  _544
REMARK  221  A    between atoms: _544  and  _545
REMARK  222  A    between atoms: _548  and  _550
REMARK  223  A    between atoms: _550  and  _551
REMARK  224  A    between atoms: _550  and  _553
REMARK  225  A    between atoms: _553  and  _554
REMARK  226  A    between atoms: _557  and  _559
REMARK  227  A    between atoms: _559  and  _560
REMARK  228  A    between atoms: _559  and  _562
REMARK  229  A    between atoms: _562  and  _563
REMARK  230  A    between atoms: _568  and  _570
REMARK  231  A    between atoms: _570  and  _571
REMARK  232  A    between atoms: _574  and  _576
REMARK  233  A    between atoms: _576  and  _577
REMARK  234  A    between atoms: _576  and  _579
REMARK  235  A    between atoms: _579  and  _580
REMARK  236  A    between atoms: _580  and  _581
REMARK  237  A    between atoms: _583  and  _585
REMARK  238  A    between atoms: _585  and  _586
REMARK  239  A    between atoms: _585  and  _588
REMARK  240  A    between atoms: _588  and  _589
REMARK  241  A    between atoms: _592  and  _594
REMARK  242  A    between atoms: _594  and  _595
REMARK  243  A    between atoms: _594  and  _597
REMARK  244  A    between atoms: _597  and  _598
REMARK  245  A    between atoms: _602  and  _603
REMARK  246  A    between atoms: _608  and  _610
REMARK  247  A    between atoms: _610  and  _611
REMARK  248  A    between atoms: _610  and  _613
REMARK  249  A    between atoms: _613  and  _614
REMARK  250  A    between atoms: _617  and  _619
REMARK  251  A    between atoms: _619  and  _620
REMARK  252  A    between atoms: _622  and  _624
REMARK  253  A    between atoms: _624  and  _625
REMARK  254  A    between atoms: _624  and  _627
REMARK  255  A    between atoms: _627  and  _628
REMARK  256  A    between atoms: _631  and  _633
REMARK  257  A    between atoms: _633  and  _634
REMARK  258  A    between atoms: _633  and  _636
REMARK  259  A    between atoms: _636  and  _637
REMARK  260  A    between atoms: _647  and  _649
REMARK  261  A    between atoms: _649  and  _650
REMARK  262  A    between atoms: _653  and  _655
REMARK  263  A    between atoms: _655  and  _656
REMARK  264  A    between atoms: _655  and  _658
REMARK  265  A    between atoms: _658  and  _659
REMARK  266  A    between atoms: _662  and  _664
REMARK  267  A    between atoms: _664  and  _665
REMARK  268  A    between atoms: _667  and  _669
REMARK  269  A    between atoms: _669  and  _670
REMARK  270  A    between atoms: _673  and  _675
REMARK  271  A    between atoms: _675  and  _676
REMARK  272  A    between atoms: _675  and  _678
REMARK  273  A    between atoms: _678  and  _679
REMARK  274  A    between atoms: _682  and  _684
REMARK  275  A    between atoms: _684  and  _685
REMARK  276  A    between atoms: _684  and  _687
REMARK  277  A    between atoms: _687  and  _688
REMARK                            x       y       z     vdW  Elec       q    Type
REMARK                         _______ _______ _______ _____ _____    ______ ____
ROOT
ATOM      1  O   HOH     1      -9.169 -31.442 -28.577  0.00  0.00    +0.000 OA
ENDROOT
TORSDOF 0
REMARK  Name = ../refined-set-2016/3own/3own_pocket.pdb
REMARK  277 active torsions:
REMARK  status: ('A' for Active; 'I' for Inactive)
REMARK    1  A    between atoms: _1  and  _3
REMARK    2  A    between atoms: _3  and  _4
REMARK    3  A    between atoms: _3  and  _6
REMARK    4  A    between atoms: _6  and  _7
REMARK    5  A    between atoms: _12  and  _13
REMARK    6  A    between atoms: _15  and  _17
REMARK    7  A    between atoms: _17  and  _18
REMARK    8  A    between atoms: _17  and  _20
REMARK    9  A    between atoms: _20  and  _21
REMARK   10  A    between atoms: _24  and  _26
REMARK   11  A    between atoms: _26  and  _27
REMARK   12  A    between atoms: _26  and  _29
REMARK   13  A    between atoms: _29  and  _30
REMARK   14  A    between atoms: _33  and  _35
REMARK   15  A    between atoms: _35  and  _36
REMARK   16  A    between atoms: _35  and  _38
REMARK   17  A    between atoms: _38  and  _39
REMARK   18  A    between atoms: _39  and  _40
REMARK   19  A    between atoms: _45  and  _47
REMARK   20  A    between atoms: _47  and  _48
REMARK   21  A    between atoms: _47  and  _50
REMARK   22  A    between atoms: _50  and  _51
REMARK   23  A    between atoms: _56  and  _57
REMARK   24  A    between atoms: _59  and  _61
REMARK   25  A    between atoms: _61  and  _62
REMARK   26  A    between atoms: _61  and  _64
REMARK   27  A    between atoms: _67  and  _69
REMARK   28  A    between atoms: _69  and  _70
REMARK   29  A    between atoms: _69  and  _72
REMARK   30  A    between atoms: _72  and  _73
REMARK   31  A    between atoms: _79  and  _81
REMARK   32  A    between atoms: _81  and  _82
REMARK   33  A    between atoms: _81  and  _84
REMARK   34  A    between atoms: _84  and  _85
REMARK   35  A    between atoms: _88  and  _90
REMARK   36  A    between atoms: _90  and  _91
REMARK   37  A    between atoms: _90  and  _93
REMARK   38  A    between atoms: _93  and  _94
REMARK   39  A    between atoms: _97  and  _99
REMARK   40  A    between atoms: _99  and  _100
REMARK   41  A    between atoms: _102  and  _104
REMARK   42  A    between atoms: _104  and  _105
REMARK   43  A    between atoms: _104  and  _107
REMARK   44  A    between atoms: _107  and  _108
REMARK   45  A    between atoms: _110  and  _112
REMARK   46  A    between atoms: _112  and  _113
REMARK   47  A    between atoms: _112  and  _115
REMARK   48  A    between atoms: _115  and  _116
REMARK   49  A    between atoms: _118  and  _120
REMARK   50  A    between atoms: _120  and  _121
REMARK   51  A    between atoms: _120  and  _123
REMARK   52  A    between atoms: _123  and  _124
REMARK   53  A    between atoms: _129  and  _131
REMARK   54  A    between atoms: _131  and  _132
REMARK   55  A    between atoms: _131  and  _134
REMARK   56  A    between atoms: _134  and  _135
REMARK   57  A    between atoms: _145  and  _147
REMARK   58  A    between atoms: _147  and  _148
REMARK   59  A    between atoms: _147  and  _150
REMARK   60  A    between atoms: _150  and  _151
REMARK   61  A    between atoms: _154  and  _156
REMARK   62  A    between atoms: _156  and  _157
REMARK   63  A    between atoms: _156  and  _159
REMARK   64  A    between atoms: _159  and  _160
REMARK   65  A    between atoms: _163  and  _165
REMARK   66  A    between atoms: _165  and  _166
REMARK   67  A    between atoms: _165  and  _168
REMARK   68  A    between atoms: _168  and  _169
REMARK   69  A    between atoms: _169  and  _170
REMARK   70  A    between atoms: _170  and  _171
REMARK   71  A    between atoms: _180  and  _182
REMARK   72  A    between atoms: _182  and  _183
REMARK   73  A    between atoms: _182  and  _185
REMARK   74  A    between atoms: _185  and  _186
REMARK   75  A    between atoms: _191  and  _192
REMARK   76  A    between atoms: _194  and  _196
REMARK   77  A    between atoms: _196  and  _197
REMARK   78  A    between atoms: _196  and  _199
REMARK   79  A    between atoms: _199  and  _200
REMARK   80  A    between atoms: _202  and  _204
REMARK   81  A    between atoms: _204  and  _205
REMARK   82  A    between atoms: _204  and  _207
REMARK   83  A    between atoms: _207  and  _208
REMARK   84  A    between atoms: _211  and  _213
REMARK   85  A    between atoms: _213  and  _214
REMARK   86  A    between atoms: _216  and  _218
REMARK   87  A    between atoms: _218  and  _219
REMARK   88  A    between atoms: _218  and  _221
REMARK   89  A    between atoms: _224  and  _226
REMARK   90  A    between atoms: _226  and  _227
REMARK   91  A    between atoms: _226  and  _229
REMARK   92  A    between atoms: _229  and  _230
REMARK   93  A    between atoms: _230  and  _231
REMARK   94  A    between atoms: _233  and  _235
REMARK   95  A    between atoms: _235  and  _236
REMARK   96  A    between atoms: _239  and  _241
REMARK   97  A    between atoms: _241  and  _242
REMARK   98  A    between atoms: _241  and  _244
REMARK   99  A    between atoms: _244  and  _245
REMARK  100  A    between atoms: _249  and  _250
REMARK  101  A    between atoms: _255  and  _257
REMARK  102  A    between atoms: _257  and  _258
REMARK  103  A    between atoms: _257  and  _260
REMARK  104  A    between atoms: _260  and  _261
REMARK  105  A    between atoms: _267  and  _269
REMARK  106  A    between atoms: _269  and  _270
REMARK  107  A    between atoms: _269  and  _272
REMARK  108  A    between atoms: _272  and  _273
REMARK  109  A    between atoms: _273  and  _274
REMARK  110  A    between atoms: _276  and  _278
REMARK  111  A    between atoms: _278  and  _279
REMARK  112  A    between atoms: _278  and  _281
REMARK  113  A    between atoms: _281  and  _282
REMARK  114  A    between atoms: _285  and  _287
REMARK  115  A    between atoms: _287  and  _288
REMARK  116  A    between atoms: _291  and  _293
REMARK  117  A    between atoms: _293  and  _294
REMARK  118  A    between atoms: _293  and  _296
REMARK  119  A    between atoms: _296  and  _297
REMARK  120  A    between atoms: _297  and  _298
REMARK  121  A    between atoms: _301  and  _303
REMARK  122  A    between atoms: _303  and  _304
REMARK  123  A    between atoms: _303  and  _306
REMARK  124  A    between atoms: _306  and  _307
REMARK  125  A    between atoms: _313  and  _315
REMARK  126  A    between atoms: _315  and  _316
REMARK  127  A    between atoms: _315  and  _318
REMARK  128  A    between atoms: _318  and  _319
REMARK  129  A    between atoms: _322  and  _324
REMARK  130  A    between atoms: _324  and  _325
REMARK  131  A    between atoms: _327  and  _329
REMARK  132  A    between atoms: _329  and  _330
REMARK  133  A    between atoms: _329  and  _332
REMARK  134  A    between atoms: _335  and  _337
REMARK  135  A    between atoms: _337  and  _338
REMARK  136  A    between atoms: _337  and  _340
REMARK  137  A    between atoms: _343  and  _345
REMARK  138  A    between atoms: _345  and  _346
REMARK  139  A    between atoms: _345  and  _348
REMARK  140  A    between atoms: _348  and  _349
REMARK  141  A    between atoms: _349  and  _350
REMARK  142  A    between atoms: _352  and  _354
REMARK  143  A    between atoms: _354  and  _355
REMARK  144  A    between atoms: _357  and  _359
REMARK  145  A    between atoms: _359  and  _360
REMARK  146  A    between atoms: _359  and  _362
REMARK  147  A    between atoms: _362  and  _363
REMARK  148  A    between atoms: _369  and  _371
REMARK  149  A    between atoms: _371  and  _372
REMARK  150  A    between atoms: _371  and  _374
REMARK  151  A    between atoms: _374  and  _375
REMARK  152  A    between atoms: _375  and  _376
REMARK  153  A    between atoms: _379  and  _381
REMARK  154  A    between atoms: _381  and  _382
REMARK  155  A    between atoms: _381  and  _384
REMARK  156  A    between atoms: _384  and  _385
REMARK  157  A    between atoms: _385  and  _386
REMARK  158  A    between atoms: _391  and  _393
REMARK  159  A    between atoms: _393  and  _394
REMARK  160  A    between atoms: _397  and  _399
REMARK  161  A    between atoms: _399  and  _400
REMARK  162  A    between atoms: _399  and  _402
REMARK  163  A    between atoms: _402  and  _403
REMARK  164  A    between atoms: _406  and  _408
REMARK  165  A    between atoms: _408  and  _409
REMARK  166  A    between atoms: _411  and  _413
REMARK  167  A    between atoms: _413  and  _414
REMARK  168  A    between atoms: _413  and  _416
REMARK  169  A    between atoms: _419  and  _421
REMARK  170  A    between atoms: _421  and  _422
REMARK  171  A    between atoms: _421  and  _424
REMARK  172  A    between atoms: _424  and  _425
REMARK  173  A    between atoms: _425  and  _426
REMARK  174  A    between atoms: _431  and  _433
REMARK  175  A    between atoms: _433  and  _434
REMARK  176  A    between atoms: _433  and  _436
REMARK  177  A    between atoms: _436  and  _437
REMARK  178  A    between atoms: _440  and  _442
REMARK  179  A    between atoms: _442  and  _443
REMARK  180  A    between atoms: _442  and  _445
REMARK  181  A    between atoms: _448  and  _450
REMARK  182  A    between atoms: _450  and  _451
REMARK  183  A    between atoms: _450  and  _453
REMARK  184  A    between atoms: _453  and  _454
REMARK  185  A    between atoms: _457  and  _459
REMARK  186  A    between atoms: _459  and  _460
REMARK  187  A    between atoms: _459  and  _462
REMARK  188  A    between atoms: _462  and  _463
REMARK  189  A    between atoms: _466  and  _468
REMARK  190  A    between atoms: _468  and  _469
REMARK  191  A    between atoms: _471  and  _473
REMARK  192  A    between atoms: _473  and  _474
REMARK  193  A    between atoms: _477  and  _479
REMARK  194  A    between atoms: _479  and  _480
REMARK  195  A    between atoms: _479  and  _482
REMARK  196  A    between atoms: _482  and  _483
REMARK  197  A    between atoms: _485  and  _487
REMARK  198  A    between atoms: _487  and  _488
REMARK  199  A    between atoms: _487  and  _490
REMARK  200  A    between atoms: _490  and  _491
REMARK  201  A    between atoms: _496  and  _497
REMARK  202  A    between atoms: _499  and  _501
REMARK  203  A    between atoms: _501  and  _502
REMARK  204  A    between atoms: _501  and  _504
REMARK  205  A    between atoms: _504  and  _505
REMARK  206  A    between atoms: _508  and  _510
REMARK  207  A    between atoms: _510  and  _511
REMARK  208  A    between atoms: _510  and  _513
REMARK  209  A    between atoms: _513  and  _514
REMARK  210  A    between atoms: _516  and  _518
REMARK  211  A    between atoms: _518  and  _519
REMARK  212  A    between atoms: _521  and  _523
REMARK  213  A    between atoms: _523  and  _524
REMARK  214  A    between atoms: _523  and  _526
REMARK  215  A    between atoms: _526  and  _527
REMARK  216  A    between atoms: _533  and  _535
REMARK  217  A    between atoms: _535  and  _536
REMARK  218  A    between atoms: _535  and  _538
REMARK  219  A    between atoms: _538  and  _539
REMARK  220  A    between atoms: _542  and  _544
REMARK  221  A    between atoms: _544  and  _545
REMARK  222  A    between atoms: _548  and  _550
REMARK  223  A    between atoms: _550  and  _551
REMARK  224  A    between atoms: _550  and  _553
REMARK  225  A    between atoms: _553  and  _554
REMARK  226  A    between atoms: _557  and  _559
REMARK  227  A    between atoms: _559  and  _560
REMARK  228  A    between atoms: _559  and  _562
REMARK  229  A    between atoms: _562  and  _563
REMARK  230  A    between atoms: _568  and  _570
REMARK  231  A    between atoms: _570  and  _571
REMARK  232  A    between atoms: _574  and  _576
REMARK  233  A    between atoms: _576  and  _577
REMARK  234  A    between atoms: _576  and  _579
REMARK  235  A    between atoms: _579  and  _580
REMARK  236  A    between atoms: _580  and  _581
REMARK  237  A    between atoms: _583  and  _585
REMARK  238  A    between atoms: _585  and  _586
REMARK  239  A    between atoms: _585  and  _588
REMARK  240  A    between atoms: _588  and  _589
REMARK  241  A    between atoms: _592  and  _594
REMARK  242  A    between atoms: _594  and  _595
REMARK  243  A    between atoms: _594  and  _597
REMARK  244  A    between atoms: _597  and  _598
REMARK  245  A    between atoms: _602  and  _603
REMARK  246  A    between atoms: _608  and  _610
REMARK  247  A    between atoms: _610  and  _611
REMARK  248  A    between atoms: _610  and  _613
REMARK  249  A    between atoms: _613  and  _614
REMARK  250  A    between atoms: _617  and  _619
REMARK  251  A    between atoms: _619  and  _620
REMARK  252  A    between atoms: _622  and  _624
REMARK  253  A    between atoms: _624  and  _625
REMARK  254  A    between atoms: _624  and  _627
REMARK  255  A    between atoms: _627  and  _628
REMARK  256  A    between atoms: _631  and  _633
REMARK  257  A    between atoms: _633  and  _634
REMARK  258  A    between atoms: _633  and  _636
REMARK  259  A    between atoms: _636  and  _637
REMARK  260  A    between atoms: _647  and  _649
REMARK  261  A    between atoms: _649  and  _650
REMARK  262  A    between atoms: _653  and  _655
REMARK  263  A    between atoms: _655  and  _656
REMARK  264  A    between atoms: _655  and  _658
REMARK  265  A    between atoms: _658  and  _659
REMARK  266  A    between atoms: _662  and  _664
REMARK  267  A    between atoms: _664  and  _665
REMARK  268  A    between atoms: _667  and  _669
REMARK  269  A    between atoms: _669  and  _670
REMARK  270  A    between atoms: _673  and  _675
REMARK  271  A    between atoms: _675  and  _676
REMARK  272  A    between atoms: _675  and  _678
REMARK  273  A    between atoms: _678  and  _679
REMARK  274  A    between atoms: _682  and  _684
REMARK  275  A    between atoms: _684  and  _685
REMARK  276  A    between atoms: _684  and  _687
REMARK  277  A    between atoms: _687  and  _688
REMARK                            x       y       z     vdW  Elec       q    Type
REMARK                         _______ _______ _______ _____ _____    ______ ____
ROOT
ATOM      1  O   HOH     1     -12.755 -35.922 -31.026  0.00  0.00    +0.000 OA
ENDROOT
TORSDOF 0
REMARK  Name = ../refined-set-2016/3own/3own_pocket.pdb
REMARK  277 active torsions:
REMARK  status: ('A' for Active; 'I' for Inactive)
REMARK    1  A    between atoms: _1  and  _3
REMARK    2  A    between atoms: _3  and  _4
REMARK    3  A    between atoms: _3  and  _6
REMARK    4  A    between atoms: _6  and  _7
REMARK    5  A    between atoms: _12  and  _13
REMARK    6  A    between atoms: _15  and  _17
REMARK    7  A    between atoms: _17  and  _18
REMARK    8  A    between atoms: _17  and  _20
REMARK    9  A    between atoms: _20  and  _21
REMARK   10  A    between atoms: _24  and  _26
REMARK   11  A    between atoms: _26  and  _27
REMARK   12  A    between atoms: _26  and  _29
REMARK   13  A    between atoms: _29  and  _30
REMARK   14  A    between atoms: _33  and  _35
REMARK   15  A    between atoms: _35  and  _36
REMARK   16  A    between atoms: _35  and  _38
REMARK   17  A    between atoms: _38  and  _39
REMARK   18  A    between atoms: _39  and  _40
REMARK   19  A    between atoms: _45  and  _47
REMARK   20  A    between atoms: _47  and  _48
REMARK   21  A    between atoms: _47  and  _50
REMARK   22  A    between atoms: _50  and  _51
REMARK   23  A    between atoms: _56  and  _57
REMARK   24  A    between atoms: _59  and  _61
REMARK   25  A    between atoms: _61  and  _62
REMARK   26  A    between atoms: _61  and  _64
REMARK   27  A    between atoms: _67  and  _69
REMARK   28  A    between atoms: _69  and  _70
REMARK   29  A    between atoms: _69  and  _72
REMARK   30  A    between atoms: _72  and  _73
REMARK   31  A    between atoms: _79  and  _81
REMARK   32  A    between atoms: _81  and  _82
REMARK   33  A    between atoms: _81  and  _84
REMARK   34  A    between atoms: _84  and  _85
REMARK   35  A    between atoms: _88  and  _90
REMARK   36  A    between atoms: _90  and  _91
REMARK   37  A    between atoms: _90  and  _93
REMARK   38  A    between atoms: _93  and  _94
REMARK   39  A    between atoms: _97  and  _99
REMARK   40  A    between atoms: _99  and  _100
REMARK   41  A    between atoms: _102  and  _104
REMARK   42  A    between atoms: _104  and  _105
REMARK   43  A    between atoms: _104  and  _107
REMARK   44  A    between atoms: _107  and  _108
REMARK   45  A    between atoms: _110  and  _112
REMARK   46  A    between atoms: _112  and  _113
REMARK   47  A    between atoms: _112  and  _115
REMARK   48  A    between atoms: _115  and  _116
REMARK   49  A    between atoms: _118  and  _120
REMARK   50  A    between atoms: _120  and  _121
REMARK   51  A    between atoms: _120  and  _123
REMARK   52  A    between atoms: _123  and  _124
REMARK   53  A    between atoms: _129  and  _131
REMARK   54  A    between atoms: _131  and  _132
REMARK   55  A    between atoms: _131  and  _134
REMARK   56  A    between atoms: _134  and  _135
REMARK   57  A    between atoms: _145  and  _147
REMARK   58  A    between atoms: _147  and  _148
REMARK   59  A    between atoms: _147  and  _150
REMARK   60  A    between atoms: _150  and  _151
REMARK   61  A    between atoms: _154  and  _156
REMARK   62  A    between atoms: _156  and  _157
REMARK   63  A    between atoms: _156  and  _159
REMARK   64  A    between atoms: _159  and  _160
REMARK   65  A    between atoms: _163  and  _165
REMARK   66  A    between atoms: _165  and  _166
REMARK   67  A    between atoms: _165  and  _168
REMARK   68  A    between atoms: _168  and  _169
REMARK   69  A    between atoms: _169  and  _170
REMARK   70  A    between atoms: _170  and  _171
REMARK   71  A    between atoms: _180  and  _182
REMARK   72  A    between atoms: _182  and  _183
REMARK   73  A    between atoms: _182  and  _185
REMARK   74  A    between atoms: _185  and  _186
REMARK   75  A    between atoms: _191  and  _192
REMARK   76  A    between atoms: _194  and  _196
REMARK   77  A    between atoms: _196  and  _197
REMARK   78  A    between atoms: _196  and  _199
REMARK   79  A    between atoms: _199  and  _200
REMARK   80  A    between atoms: _202  and  _204
REMARK   81  A    between atoms: _204  and  _205
REMARK   82  A    between atoms: _204  and  _207
REMARK   83  A    between atoms: _207  and  _208
REMARK   84  A    between atoms: _211  and  _213
REMARK   85  A    between atoms: _213  and  _214
REMARK   86  A    between atoms: _216  and  _218
REMARK   87  A    between atoms: _218  and  _219
REMARK   88  A    between atoms: _218  and  _221
REMARK   89  A    between atoms: _224  and  _226
REMARK   90  A    between atoms: _226  and  _227
REMARK   91  A    between atoms: _226  and  _229
REMARK   92  A    between atoms: _229  and  _230
REMARK   93  A    between atoms: _230  and  _231
REMARK   94  A    between atoms: _233  and  _235
REMARK   95  A    between atoms: _235  and  _236
REMARK   96  A    between atoms: _239  and  _241
REMARK   97  A    between atoms: _241  and  _242
REMARK   98  A    between atoms: _241  and  _244
REMARK   99  A    between atoms: _244  and  _245
REMARK  100  A    between atoms: _249  and  _250
REMARK  101  A    between atoms: _255  and  _257
REMARK  102  A    between atoms: _257  and  _258
REMARK  103  A    between atoms: _257  and  _260
REMARK  104  A    between atoms: _260  and  _261
REMARK  105  A    between atoms: _267  and  _269
REMARK  106  A    between atoms: _269  and  _270
REMARK  107  A    between atoms: _269  and  _272
REMARK  108  A    between atoms: _272  and  _273
REMARK  109  A    between atoms: _273  and  _274
REMARK  110  A    between atoms: _276  and  _278
REMARK  111  A    between atoms: _278  and  _279
REMARK  112  A    between atoms: _278  and  _281
REMARK  113  A    between atoms: _281  and  _282
REMARK  114  A    between atoms: _285  and  _287
REMARK  115  A    between atoms: _287  and  _288
REMARK  116  A    between atoms: _291  and  _293
REMARK  117  A    between atoms: _293  and  _294
REMARK  118  A    between atoms: _293  and  _296
REMARK  119  A    between atoms: _296  and  _297
REMARK  120  A    between atoms: _297  and  _298
REMARK  121  A    between atoms: _301  and  _303
REMARK  122  A    between atoms: _303  and  _304
REMARK  123  A    between atoms: _303  and  _306
REMARK  124  A    between atoms: _306  and  _307
REMARK  125  A    between atoms: _313  and  _315
REMARK  126  A    between atoms: _315  and  _316
REMARK  127  A    between atoms: _315  and  _318
REMARK  128  A    between atoms: _318  and  _319
REMARK  129  A    between atoms: _322  and  _324
REMARK  130  A    between atoms: _324  and  _325
REMARK  131  A    between atoms: _327  and  _329
REMARK  132  A    between atoms: _329  and  _330
REMARK  133  A    between atoms: _329  and  _332
REMARK  134  A    between atoms: _335  and  _337
REMARK  135  A    between atoms: _337  and  _338
REMARK  136  A    between atoms: _337  and  _340
REMARK  137  A    between atoms: _343  and  _345
REMARK  138  A    between atoms: _345  and  _346
REMARK  139  A    between atoms: _345  and  _348
REMARK  140  A    between atoms: _348  and  _349
REMARK  141  A    between atoms: _349  and  _350
REMARK  142  A    between atoms: _352  and  _354
REMARK  143  A    between atoms: _354  and  _355
REMARK  144  A    between atoms: _357  and  _359
REMARK  145  A    between atoms: _359  and  _360
REMARK  146  A    between atoms: _359  and  _362
REMARK  147  A    between atoms: _362  and  _363
REMARK  148  A    between atoms: _369  and  _371
REMARK  149  A    between atoms: _371  and  _372
REMARK  150  A    between atoms: _371  and  _374
REMARK  151  A    between atoms: _374  and  _375
REMARK  152  A    between atoms: _375  and  _376
REMARK  153  A    between atoms: _379  and  _381
REMARK  154  A    between atoms: _381  and  _382
REMARK  155  A    between atoms: _381  and  _384
REMARK  156  A    between atoms: _384  and  _385
REMARK  157  A    between atoms: _385  and  _386
REMARK  158  A    between atoms: _391  and  _393
REMARK  159  A    between atoms: _393  and  _394
REMARK  160  A    between atoms: _397  and  _399
REMARK  161  A    between atoms: _399  and  _400
REMARK  162  A    between atoms: _399  and  _402
REMARK  163  A    between atoms: _402  and  _403
REMARK  164  A    between atoms: _406  and  _408
REMARK  165  A    between atoms: _408  and  _409
REMARK  166  A    between atoms: _411  and  _413
REMARK  167  A    between atoms: _413  and  _414
REMARK  168  A    between atoms: _413  and  _416
REMARK  169  A    between atoms: _419  and  _421
REMARK  170  A    between atoms: _421  and  _422
REMARK  171  A    between atoms: _421  and  _424
REMARK  172  A    between atoms: _424  and  _425
REMARK  173  A    between atoms: _425  and  _426
REMARK  174  A    between atoms: _431  and  _433
REMARK  175  A    between atoms: _433  and  _434
REMARK  176  A    between atoms: _433  and  _436
REMARK  177  A    between atoms: _436  and  _437
REMARK  178  A    between atoms: _440  and  _442
REMARK  179  A    between atoms: _442  and  _443
REMARK  180  A    between atoms: _442  and  _445
REMARK  181  A    between atoms: _448  and  _450
REMARK  182  A    between atoms: _450  and  _451
REMARK  183  A    between atoms: _450  and  _453
REMARK  184  A    between atoms: _453  and  _454
REMARK  185  A    between atoms: _457  and  _459
REMARK  186  A    between atoms: _459  and  _460
REMARK  187  A    between atoms: _459  and  _462
REMARK  188  A    between atoms: _462  and  _463
REMARK  189  A    between atoms: _466  and  _468
REMARK  190  A    between atoms: _468  and  _469
REMARK  191  A    between atoms: _471  and  _473
REMARK  192  A    between atoms: _473  and  _474
REMARK  193  A    between atoms: _477  and  _479
REMARK  194  A    between atoms: _479  and  _480
REMARK  195  A    between atoms: _479  and  _482
REMARK  196  A    between atoms: _482  and  _483
REMARK  197  A    between atoms: _485  and  _487
REMARK  198  A    between atoms: _487  and  _488
REMARK  199  A    between atoms: _487  and  _490
REMARK  200  A    between atoms: _490  and  _491
REMARK  201  A    between atoms: _496  and  _497
REMARK  202  A    between atoms: _499  and  _501
REMARK  203  A    between atoms: _501  and  _502
REMARK  204  A    between atoms: _501  and  _504
REMARK  205  A    between atoms: _504  and  _505
REMARK  206  A    between atoms: _508  and  _510
REMARK  207  A    between atoms: _510  and  _511
REMARK  208  A    between atoms: _510  and  _513
REMARK  209  A    between atoms: _513  and  _514
REMARK  210  A    between atoms: _516  and  _518
REMARK  211  A    between atoms: _518  and  _519
REMARK  212  A    between atoms: _521  and  _523
REMARK  213  A    between atoms: _523  and  _524
REMARK  214  A    between atoms: _523  and  _526
REMARK  215  A    between atoms: _526  and  _527
REMARK  216  A    between atoms: _533  and  _535
REMARK  217  A    between atoms: _535  and  _536
REMARK  218  A    between atoms: _535  and  _538
REMARK  219  A    between atoms: _538  and  _539
REMARK  220  A    between atoms: _542  and  _544
REMARK  221  A    between atoms: _544  and  _545
REMARK  222  A    between atoms: _548  and  _550
REMARK  223  A    between atoms: _550  and  _551
REMARK  224  A    between atoms: _550  and  _553
REMARK  225  A    between atoms: _553  and  _554
REMARK  226  A    between atoms: _557  and  _559
REMARK  227  A    between atoms: _559  and  _560
REMARK  228  A    between atoms: _559  and  _562
REMARK  229  A    between atoms: _562  and  _563
REMARK  230  A    between atoms: _568  and  _570
REMARK  231  A    between atoms: _570  and  _571
REMARK  232  A    between atoms: _574  and  _576
REMARK  233  A    between atoms: _576  and  _577
REMARK  234  A    between atoms: _576  and  _579
REMARK  235  A    between atoms: _579  and  _580
REMARK  236  A    between atoms: _580  and  _581
REMARK  237  A    between atoms: _583  and  _585
REMARK  238  A    between atoms: _585  and  _586
REMARK  239  A    between atoms: _585  and  _588
REMARK  240  A    between atoms: _588  and  _589
REMARK  241  A    between atoms: _592  and  _594
REMARK  242  A    between atoms: _594  and  _595
REMARK  243  A    between atoms: _594  and  _597
REMARK  244  A    between atoms: _597  and  _598
REMARK  245  A    between atoms: _602  and  _603
REMARK  246  A    between atoms: _608  and  _610
REMARK  247  A    between atoms: _610  and  _611
REMARK  248  A    between atoms: _610  and  _613
REMARK  249  A    between atoms: _613  and  _614
REMARK  250  A    between atoms: _617  and  _619
REMARK  251  A    between atoms: _619  and  _620
REMARK  252  A    between atoms: _622  and  _624
REMARK  253  A    between atoms: _624  and  _625
REMARK  254  A    between atoms: _624  and  _627
REMARK  255  A    between atoms: _627  and  _628
REMARK  256  A    between atoms: _631  and  _633
REMARK  257  A    between atoms: _633  and  _634
REMARK  258  A    between atoms: _633  and  _636
REMARK  259  A    between atoms: _636  and  _637
REMARK  260  A    between atoms: _647  and  _649
REMARK  261  A    between atoms: _649  and  _650
REMARK  262  A    between atoms: _653  and  _655
REMARK  263  A    between atoms: _655  and  _656
REMARK  264  A    between atoms: _655  and  _658
REMARK  265  A    between atoms: _658  and  _659
REMARK  266  A    between atoms: _662  and  _664
REMARK  267  A    between atoms: _664  and  _665
REMARK  268  A    between atoms: _667  and  _669
REMARK  269  A    between atoms: _669  and  _670
REMARK  270  A    between atoms: _673  and  _675
REMARK  271  A    between atoms: _675  and  _676
REMARK  272  A    between atoms: _675  and  _678
REMARK  273  A    between atoms: _678  and  _679
REMARK  274  A    between atoms: _682  and  _684
REMARK  275  A    between atoms: _684  and  _685
REMARK  276  A    between atoms: _684  and  _687
REMARK  277  A    between atoms: _687  and  _688
REMARK                            x       y       z     vdW  Elec       q    Type
REMARK                         _______ _______ _______ _____ _____    ______ ____
ROOT
ATOM      1  O   HOH     1     -15.037 -17.208 -28.289  0.00  0.00    +0.000 OA
ENDROOT
TORSDOF 0
REMARK  Name = ../refined-set-2016/3own/3own_pocket.pdb
REMARK  277 active torsions:
REMARK  status: ('A' for Active; 'I' for Inactive)
REMARK    1  A    between atoms: _1  and  _3
REMARK    2  A    between atoms: _3  and  _4
REMARK    3  A    between atoms: _3  and  _6
REMARK    4  A    between atoms: _6  and  _7
REMARK    5  A    between atoms: _12  and  _13
REMARK    6  A    between atoms: _15  and  _17
REMARK    7  A    between atoms: _17  and  _18
REMARK    8  A    between atoms: _17  and  _20
REMARK    9  A    between atoms: _20  and  _21
REMARK   10  A    between atoms: _24  and  _26
REMARK   11  A    between atoms: _26  and  _27
REMARK   12  A    between atoms: _26  and  _29
REMARK   13  A    between atoms: _29  and  _30
REMARK   14  A    between atoms: _33  and  _35
REMARK   15  A    between atoms: _35  and  _36
REMARK   16  A    between atoms: _35  and  _38
REMARK   17  A    between atoms: _38  and  _39
REMARK   18  A    between atoms: _39  and  _40
REMARK   19  A    between atoms: _45  and  _47
REMARK   20  A    between atoms: _47  and  _48
REMARK   21  A    between atoms: _47  and  _50
REMARK   22  A    between atoms: _50  and  _51
REMARK   23  A    between atoms: _56  and  _57
REMARK   24  A    between atoms: _59  and  _61
REMARK   25  A    between atoms: _61  and  _62
REMARK   26  A    between atoms: _61  and  _64
REMARK   27  A    between atoms: _67  and  _69
REMARK   28  A    between atoms: _69  and  _70
REMARK   29  A    between atoms: _69  and  _72
REMARK   30  A    between atoms: _72  and  _73
REMARK   31  A    between atoms: _79  and  _81
REMARK   32  A    between atoms: _81  and  _82
REMARK   33  A    between atoms: _81  and  _84
REMARK   34  A    between atoms: _84  and  _85
REMARK   35  A    between atoms: _88  and  _90
REMARK   36  A    between atoms: _90  and  _91
REMARK   37  A    between atoms: _90  and  _93
REMARK   38  A    between atoms: _93  and  _94
REMARK   39  A    between atoms: _97  and  _99
REMARK   40  A    between atoms: _99  and  _100
REMARK   41  A    between atoms: _102  and  _104
REMARK   42  A    between atoms: _104  and  _105
REMARK   43  A    between atoms: _104  and  _107
REMARK   44  A    between atoms: _107  and  _108
REMARK   45  A    between atoms: _110  and  _112
REMARK   46  A    between atoms: _112  and  _113
REMARK   47  A    between atoms: _112  and  _115
REMARK   48  A    between atoms: _115  and  _116
REMARK   49  A    between atoms: _118  and  _120
REMARK   50  A    between atoms: _120  and  _121
REMARK   51  A    between atoms: _120  and  _123
REMARK   52  A    between atoms: _123  and  _124
REMARK   53  A    between atoms: _129  and  _131
REMARK   54  A    between atoms: _131  and  _132
REMARK   55  A    between atoms: _131  and  _134
REMARK   56  A    between atoms: _134  and  _135
REMARK   57  A    between atoms: _145  and  _147
REMARK   58  A    between atoms: _147  and  _148
REMARK   59  A    between atoms: _147  and  _150
REMARK   60  A    between atoms: _150  and  _151
REMARK   61  A    between atoms: _154  and  _156
REMARK   62  A    between atoms: _156  and  _157
REMARK   63  A    between atoms: _156  and  _159
REMARK   64  A    between atoms: _159  and  _160
REMARK   65  A    between atoms: _163  and  _165
REMARK   66  A    between atoms: _165  and  _166
REMARK   67  A    between atoms: _165  and  _168
REMARK   68  A    between atoms: _168  and  _169
REMARK   69  A    between atoms: _169  and  _170
REMARK   70  A    between atoms: _170  and  _171
REMARK   71  A    between atoms: _180  and  _182
REMARK   72  A    between atoms: _182  and  _183
REMARK   73  A    between atoms: _182  and  _185
REMARK   74  A    between atoms: _185  and  _186
REMARK   75  A    between atoms: _191  and  _192
REMARK   76  A    between atoms: _194  and  _196
REMARK   77  A    between atoms: _196  and  _197
REMARK   78  A    between atoms: _196  and  _199
REMARK   79  A    between atoms: _199  and  _200
REMARK   80  A    between atoms: _202  and  _204
REMARK   81  A    between atoms: _204  and  _205
REMARK   82  A    between atoms: _204  and  _207
REMARK   83  A    between atoms: _207  and  _208
REMARK   84  A    between atoms: _211  and  _213
REMARK   85  A    between atoms: _213  and  _214
REMARK   86  A    between atoms: _216  and  _218
REMARK   87  A    between atoms: _218  and  _219
REMARK   88  A    between atoms: _218  and  _221
REMARK   89  A    between atoms: _224  and  _226
REMARK   90  A    between atoms: _226  and  _227
REMARK   91  A    between atoms: _226  and  _229
REMARK   92  A    between atoms: _229  and  _230
REMARK   93  A    between atoms: _230  and  _231
REMARK   94  A    between atoms: _233  and  _235
REMARK   95  A    between atoms: _235  and  _236
REMARK   96  A    between atoms: _239  and  _241
REMARK   97  A    between atoms: _241  and  _242
REMARK   98  A    between atoms: _241  and  _244
REMARK   99  A    between atoms: _244  and  _245
REMARK  100  A    between atoms: _249  and  _250
REMARK  101  A    between atoms: _255  and  _257
REMARK  102  A    between atoms: _257  and  _258
REMARK  103  A    between atoms: _257  and  _260
REMARK  104  A    between atoms: _260  and  _261
REMARK  105  A    between atoms: _267  and  _269
REMARK  106  A    between atoms: _269  and  _270
REMARK  107  A    between atoms: _269  and  _272
REMARK  108  A    between atoms: _272  and  _273
REMARK  109  A    between atoms: _273  and  _274
REMARK  110  A    between atoms: _276  and  _278
REMARK  111  A    between atoms: _278  and  _279
REMARK  112  A    between atoms: _278  and  _281
REMARK  113  A    between atoms: _281  and  _282
REMARK  114  A    between atoms: _285  and  _287
REMARK  115  A    between atoms: _287  and  _288
REMARK  116  A    between atoms: _291  and  _293
REMARK  117  A    between atoms: _293  and  _294
REMARK  118  A    between atoms: _293  and  _296
REMARK  119  A    between atoms: _296  and  _297
REMARK  120  A    between atoms: _297  and  _298
REMARK  121  A    between atoms: _301  and  _303
REMARK  122  A    between atoms: _303  and  _304
REMARK  123  A    between atoms: _303  and  _306
REMARK  124  A    between atoms: _306  and  _307
REMARK  125  A    between atoms: _313  and  _315
REMARK  126  A    between atoms: _315  and  _316
REMARK  127  A    between atoms: _315  and  _318
REMARK  128  A    between atoms: _318  and  _319
REMARK  129  A    between atoms: _322  and  _324
REMARK  130  A    between atoms: _324  and  _325
REMARK  131  A    between atoms: _327  and  _329
REMARK  132  A    between atoms: _329  and  _330
REMARK  133  A    between atoms: _329  and  _332
REMARK  134  A    between atoms: _335  and  _337
REMARK  135  A    between atoms: _337  and  _338
REMARK  136  A    between atoms: _337  and  _340
REMARK  137  A    between atoms: _343  and  _345
REMARK  138  A    between atoms: _345  and  _346
REMARK  139  A    between atoms: _345  and  _348
REMARK  140  A    between atoms: _348  and  _349
REMARK  141  A    between atoms: _349  and  _350
REMARK  142  A    between atoms: _352  and  _354
REMARK  143  A    between atoms: _354  and  _355
REMARK  144  A    between atoms: _357  and  _359
REMARK  145  A    between atoms: _359  and  _360
REMARK  146  A    between atoms: _359  and  _362
REMARK  147  A    between atoms: _362  and  _363
REMARK  148  A    between atoms: _369  and  _371
REMARK  149  A    between atoms: _371  and  _372
REMARK  150  A    between atoms: _371  and  _374
REMARK  151  A    between atoms: _374  and  _375
REMARK  152  A    between atoms: _375  and  _376
REMARK  153  A    between atoms: _379  and  _381
REMARK  154  A    between atoms: _381  and  _382
REMARK  155  A    between atoms: _381  and  _384
REMARK  156  A    between atoms: _384  and  _385
REMARK  157  A    between atoms: _385  and  _386
REMARK  158  A    between atoms: _391  and  _393
REMARK  159  A    between atoms: _393  and  _394
REMARK  160  A    between atoms: _397  and  _399
REMARK  161  A    between atoms: _399  and  _400
REMARK  162  A    between atoms: _399  and  _402
REMARK  163  A    between atoms: _402  and  _403
REMARK  164  A    between atoms: _406  and  _408
REMARK  165  A    between atoms: _408  and  _409
REMARK  166  A    between atoms: _411  and  _413
REMARK  167  A    between atoms: _413  and  _414
REMARK  168  A    between atoms: _413  and  _416
REMARK  169  A    between atoms: _419  and  _421
REMARK  170  A    between atoms: _421  and  _422
REMARK  171  A    between atoms: _421  and  _424
REMARK  172  A    between atoms: _424  and  _425
REMARK  173  A    between atoms: _425  and  _426
REMARK  174  A    between atoms: _431  and  _433
REMARK  175  A    between atoms: _433  and  _434
REMARK  176  A    between atoms: _433  and  _436
REMARK  177  A    between atoms: _436  and  _437
REMARK  178  A    between atoms: _440  and  _442
REMARK  179  A    between atoms: _442  and  _443
REMARK  180  A    between atoms: _442  and  _445
REMARK  181  A    between atoms: _448  and  _450
REMARK  182  A    between atoms: _450  and  _451
REMARK  183  A    between atoms: _450  and  _453
REMARK  184  A    between atoms: _453  and  _454
REMARK  185  A    between atoms: _457  and  _459
REMARK  186  A    between atoms: _459  and  _460
REMARK  187  A    between atoms: _459  and  _462
REMARK  188  A    between atoms: _462  and  _463
REMARK  189  A    between atoms: _466  and  _468
REMARK  190  A    between atoms: _468  and  _469
REMARK  191  A    between atoms: _471  and  _473
REMARK  192  A    between atoms: _473  and  _474
REMARK  193  A    between atoms: _477  and  _479
REMARK  194  A    between atoms: _479  and  _480
REMARK  195  A    between atoms: _479  and  _482
REMARK  196  A    between atoms: _482  and  _483
REMARK  197  A    between atoms: _485  and  _487
REMARK  198  A    between atoms: _487  and  _488
REMARK  199  A    between atoms: _487  and  _490
REMARK  200  A    between atoms: _490  and  _491
REMARK  201  A    between atoms: _496  and  _497
REMARK  202  A    between atoms: _499  and  _501
REMARK  203  A    between atoms: _501  and  _502
REMARK  204  A    between atoms: _501  and  _504
REMARK  205  A    between atoms: _504  and  _505
REMARK  206  A    between atoms: _508  and  _510
REMARK  207  A    between atoms: _510  and  _511
REMARK  208  A    between atoms: _510  and  _513
REMARK  209  A    between atoms: _513  and  _514
REMARK  210  A    between atoms: _516  and  _518
REMARK  211  A    between atoms: _518  and  _519
REMARK  212  A    between atoms: _521  and  _523
REMARK  213  A    between atoms: _523  and  _524
REMARK  214  A    between atoms: _523  and  _526
REMARK  215  A    between atoms: _526  and  _527
REMARK  216  A    between atoms: _533  and  _535
REMARK  217  A    between atoms: _535  and  _536
REMARK  218  A    between atoms: _535  and  _538
REMARK  219  A    between atoms: _538  and  _539
REMARK  220  A    between atoms: _542  and  _544
REMARK  221  A    between atoms: _544  and  _545
REMARK  222  A    between atoms: _548  and  _550
REMARK  223  A    between atoms: _550  and  _551
REMARK  224  A    between atoms: _550  and  _553
REMARK  225  A    between atoms: _553  and  _554
REMARK  226  A    between atoms: _557  and  _559
REMARK  227  A    between atoms: _559  and  _560
REMARK  228  A    between atoms: _559  and  _562
REMARK  229  A    between atoms: _562  and  _563
REMARK  230  A    between atoms: _568  and  _570
REMARK  231  A    between atoms: _570  and  _571
REMARK  232  A    between atoms: _574  and  _576
REMARK  233  A    between atoms: _576  and  _577
REMARK  234  A    between atoms: _576  and  _579
REMARK  235  A    between atoms: _579  and  _580
REMARK  236  A    between atoms: _580  and  _581
REMARK  237  A    between atoms: _583  and  _585
REMARK  238  A    between atoms: _585  and  _586
REMARK  239  A    between atoms: _585  and  _588
REMARK  240  A    between atoms: _588  and  _589
REMARK  241  A    between atoms: _592  and  _594
REMARK  242  A    between atoms: _594  and  _595
REMARK  243  A    between atoms: _594  and  _597
REMARK  244  A    between atoms: _597  and  _598
REMARK  245  A    between atoms: _602  and  _603
REMARK  246  A    between atoms: _608  and  _610
REMARK  247  A    between atoms: _610  and  _611
REMARK  248  A    between atoms: _610  and  _613
REMARK  249  A    between atoms: _613  and  _614
REMARK  250  A    between atoms: _617  and  _619
REMARK  251  A    between atoms: _619  and  _620
REMARK  252  A    between atoms: _622  and  _624
REMARK  253  A    between atoms: _624  and  _625
REMARK  254  A    between atoms: _624  and  _627
REMARK  255  A    between atoms: _627  and  _628
REMARK  256  A    between atoms: _631  and  _633
REMARK  257  A    between atoms: _633  and  _634
REMARK  258  A    between atoms: _633  and  _636
REMARK  259  A    between atoms: _636  and  _637
REMARK  260  A    between atoms: _647  and  _649
REMARK  261  A    between atoms: _649  and  _650
REMARK  262  A    between atoms: _653  and  _655
REMARK  263  A    between atoms: _655  and  _656
REMARK  264  A    between atoms: _655  and  _658
REMARK  265  A    between atoms: _658  and  _659
REMARK  266  A    between atoms: _662  and  _664
REMARK  267  A    between atoms: _664  and  _665
REMARK  268  A    between atoms: _667  and  _669
REMARK  269  A    between atoms: _669  and  _670
REMARK  270  A    between atoms: _673  and  _675
REMARK  271  A    between atoms: _675  and  _676
REMARK  272  A    between atoms: _675  and  _678
REMARK  273  A    between atoms: _678  and  _679
REMARK  274  A    between atoms: _682  and  _684
REMARK  275  A    between atoms: _684  and  _685
REMARK  276  A    between atoms: _684  and  _687
REMARK  277  A    between atoms: _687  and  _688
REMARK                            x       y       z     vdW  Elec       q    Type
REMARK                         _______ _______ _______ _____ _____    ______ ____
ROOT
ATOM      1  O   HOH     1     -11.258 -37.343 -44.717  0.00  0.00    +0.000 OA
ENDROOT
TORSDOF 0
REMARK  Name = ../refined-set-2016/3own/3own_pocket.pdb
REMARK  277 active torsions:
REMARK  status: ('A' for Active; 'I' for Inactive)
REMARK    1  A    between atoms: _1  and  _3
REMARK    2  A    between atoms: _3  and  _4
REMARK    3  A    between atoms: _3  and  _6
REMARK    4  A    between atoms: _6  and  _7
REMARK    5  A    between atoms: _12  and  _13
REMARK    6  A    between atoms: _15  and  _17
REMARK    7  A    between atoms: _17  and  _18
REMARK    8  A    between atoms: _17  and  _20
REMARK    9  A    between atoms: _20  and  _21
REMARK   10  A    between atoms: _24  and  _26
REMARK   11  A    between atoms: _26  and  _27
REMARK   12  A    between atoms: _26  and  _29
REMARK   13  A    between atoms: _29  and  _30
REMARK   14  A    between atoms: _33  and  _35
REMARK   15  A    between atoms: _35  and  _36
REMARK   16  A    between atoms: _35  and  _38
REMARK   17  A    between atoms: _38  and  _39
REMARK   18  A    between atoms: _39  and  _40
REMARK   19  A    between atoms: _45  and  _47
REMARK   20  A    between atoms: _47  and  _48
REMARK   21  A    between atoms: _47  and  _50
REMARK   22  A    between atoms: _50  and  _51
REMARK   23  A    between atoms: _56  and  _57
REMARK   24  A    between atoms: _59  and  _61
REMARK   25  A    between atoms: _61  and  _62
REMARK   26  A    between atoms: _61  and  _64
REMARK   27  A    between atoms: _67  and  _69
REMARK   28  A    between atoms: _69  and  _70
REMARK   29  A    between atoms: _69  and  _72
REMARK   30  A    between atoms: _72  and  _73
REMARK   31  A    between atoms: _79  and  _81
REMARK   32  A    between atoms: _81  and  _82
REMARK   33  A    between atoms: _81  and  _84
REMARK   34  A    between atoms: _84  and  _85
REMARK   35  A    between atoms: _88  and  _90
REMARK   36  A    between atoms: _90  and  _91
REMARK   37  A    between atoms: _90  and  _93
REMARK   38  A    between atoms: _93  and  _94
REMARK   39  A    between atoms: _97  and  _99
REMARK   40  A    between atoms: _99  and  _100
REMARK   41  A    between atoms: _102  and  _104
REMARK   42  A    between atoms: _104  and  _105
REMARK   43  A    between atoms: _104  and  _107
REMARK   44  A    between atoms: _107  and  _108
REMARK   45  A    between atoms: _110  and  _112
REMARK   46  A    between atoms: _112  and  _113
REMARK   47  A    between atoms: _112  and  _115
REMARK   48  A    between atoms: _115  and  _116
REMARK   49  A    between atoms: _118  and  _120
REMARK   50  A    between atoms: _120  and  _121
REMARK   51  A    between atoms: _120  and  _123
REMARK   52  A    between atoms: _123  and  _124
REMARK   53  A    between atoms: _129  and  _131
REMARK   54  A    between atoms: _131  and  _132
REMARK   55  A    between atoms: _131  and  _134
REMARK   56  A    between atoms: _134  and  _135
REMARK   57  A    between atoms: _145  and  _147
REMARK   58  A    between atoms: _147  and  _148
REMARK   59  A    between atoms: _147  and  _150
REMARK   60  A    between atoms: _150  and  _151
REMARK   61  A    between atoms: _154  and  _156
REMARK   62  A    between atoms: _156  and  _157
REMARK   63  A    between atoms: _156  and  _159
REMARK   64  A    between atoms: _159  and  _160
REMARK   65  A    between atoms: _163  and  _165
REMARK   66  A    between atoms: _165  and  _166
REMARK   67  A    between atoms: _165  and  _168
REMARK   68  A    between atoms: _168  and  _169
REMARK   69  A    between atoms: _169  and  _170
REMARK   70  A    between atoms: _170  and  _171
REMARK   71  A    between atoms: _180  and  _182
REMARK   72  A    between atoms: _182  and  _183
REMARK   73  A    between atoms: _182  and  _185
REMARK   74  A    between atoms: _185  and  _186
REMARK   75  A    between atoms: _191  and  _192
REMARK   76  A    between atoms: _194  and  _196
REMARK   77  A    between atoms: _196  and  _197
REMARK   78  A    between atoms: _196  and  _199
REMARK   79  A    between atoms: _199  and  _200
REMARK   80  A    between atoms: _202  and  _204
REMARK   81  A    between atoms: _204  and  _205
REMARK   82  A    between atoms: _204  and  _207
REMARK   83  A    between atoms: _207  and  _208
REMARK   84  A    between atoms: _211  and  _213
REMARK   85  A    between atoms: _213  and  _214
REMARK   86  A    between atoms: _216  and  _218
REMARK   87  A    between atoms: _218  and  _219
REMARK   88  A    between atoms: _218  and  _221
REMARK   89  A    between atoms: _224  and  _226
REMARK   90  A    between atoms: _226  and  _227
REMARK   91  A    between atoms: _226  and  _229
REMARK   92  A    between atoms: _229  and  _230
REMARK   93  A    between atoms: _230  and  _231
REMARK   94  A    between atoms: _233  and  _235
REMARK   95  A    between atoms: _235  and  _236
REMARK   96  A    between atoms: _239  and  _241
REMARK   97  A    between atoms: _241  and  _242
REMARK   98  A    between atoms: _241  and  _244
REMARK   99  A    between atoms: _244  and  _245
REMARK  100  A    between atoms: _249  and  _250
REMARK  101  A    between atoms: _255  and  _257
REMARK  102  A    between atoms: _257  and  _258
REMARK  103  A    between atoms: _257  and  _260
REMARK  104  A    between atoms: _260  and  _261
REMARK  105  A    between atoms: _267  and  _269
REMARK  106  A    between atoms: _269  and  _270
REMARK  107  A    between atoms: _269  and  _272
REMARK  108  A    between atoms: _272  and  _273
REMARK  109  A    between atoms: _273  and  _274
REMARK  110  A    between atoms: _276  and  _278
REMARK  111  A    between atoms: _278  and  _279
REMARK  112  A    between atoms: _278  and  _281
REMARK  113  A    between atoms: _281  and  _282
REMARK  114  A    between atoms: _285  and  _287
REMARK  115  A    between atoms: _287  and  _288
REMARK  116  A    between atoms: _291  and  _293
REMARK  117  A    between atoms: _293  and  _294
REMARK  118  A    between atoms: _293  and  _296
REMARK  119  A    between atoms: _296  and  _297
REMARK  120  A    between atoms: _297  and  _298
REMARK  121  A    between atoms: _301  and  _303
REMARK  122  A    between atoms: _303  and  _304
REMARK  123  A    between atoms: _303  and  _306
REMARK  124  A    between atoms: _306  and  _307
REMARK  125  A    between atoms: _313  and  _315
REMARK  126  A    between atoms: _315  and  _316
REMARK  127  A    between atoms: _315  and  _318
REMARK  128  A    between atoms: _318  and  _319
REMARK  129  A    between atoms: _322  and  _324
REMARK  130  A    between atoms: _324  and  _325
REMARK  131  A    between atoms: _327  and  _329
REMARK  132  A    between atoms: _329  and  _330
REMARK  133  A    between atoms: _329  and  _332
REMARK  134  A    between atoms: _335  and  _337
REMARK  135  A    between atoms: _337  and  _338
REMARK  136  A    between atoms: _337  and  _340
REMARK  137  A    between atoms: _343  and  _345
REMARK  138  A    between atoms: _345  and  _346
REMARK  139  A    between atoms: _345  and  _348
REMARK  140  A    between atoms: _348  and  _349
REMARK  141  A    between atoms: _349  and  _350
REMARK  142  A    between atoms: _352  and  _354
REMARK  143  A    between atoms: _354  and  _355
REMARK  144  A    between atoms: _357  and  _359
REMARK  145  A    between atoms: _359  and  _360
REMARK  146  A    between atoms: _359  and  _362
REMARK  147  A    between atoms: _362  and  _363
REMARK  148  A    between atoms: _369  and  _371
REMARK  149  A    between atoms: _371  and  _372
REMARK  150  A    between atoms: _371  and  _374
REMARK  151  A    between atoms: _374  and  _375
REMARK  152  A    between atoms: _375  and  _376
REMARK  153  A    between atoms: _379  and  _381
REMARK  154  A    between atoms: _381  and  _382
REMARK  155  A    between atoms: _381  and  _384
REMARK  156  A    between atoms: _384  and  _385
REMARK  157  A    between atoms: _385  and  _386
REMARK  158  A    between atoms: _391  and  _393
REMARK  159  A    between atoms: _393  and  _394
REMARK  160  A    between atoms: _397  and  _399
REMARK  161  A    between atoms: _399  and  _400
REMARK  162  A    between atoms: _399  and  _402
REMARK  163  A    between atoms: _402  and  _403
REMARK  164  A    between atoms: _406  and  _408
REMARK  165  A    between atoms: _408  and  _409
REMARK  166  A    between atoms: _411  and  _413
REMARK  167  A    between atoms: _413  and  _414
REMARK  168  A    between atoms: _413  and  _416
REMARK  169  A    between atoms: _419  and  _421
REMARK  170  A    between atoms: _421  and  _422
REMARK  171  A    between atoms: _421  and  _424
REMARK  172  A    between atoms: _424  and  _425
REMARK  173  A    between atoms: _425  and  _426
REMARK  174  A    between atoms: _431  and  _433
REMARK  175  A    between atoms: _433  and  _434
REMARK  176  A    between atoms: _433  and  _436
REMARK  177  A    between atoms: _436  and  _437
REMARK  178  A    between atoms: _440  and  _442
REMARK  179  A    between atoms: _442  and  _443
REMARK  180  A    between atoms: _442  and  _445
REMARK  181  A    between atoms: _448  and  _450
REMARK  182  A    between atoms: _450  and  _451
REMARK  183  A    between atoms: _450  and  _453
REMARK  184  A    between atoms: _453  and  _454
REMARK  185  A    between atoms: _457  and  _459
REMARK  186  A    between atoms: _459  and  _460
REMARK  187  A    between atoms: _459  and  _462
REMARK  188  A    between atoms: _462  and  _463
REMARK  189  A    between atoms: _466  and  _468
REMARK  190  A    between atoms: _468  and  _469
REMARK  191  A    between atoms: _471  and  _473
REMARK  192  A    between atoms: _473  and  _474
REMARK  193  A    between atoms: _477  and  _479
REMARK  194  A    between atoms: _479  and  _480
REMARK  195  A    between atoms: _479  and  _482
REMARK  196  A    between atoms: _482  and  _483
REMARK  197  A    between atoms: _485  and  _487
REMARK  198  A    between atoms: _487  and  _488
REMARK  199  A    between atoms: _487  and  _490
REMARK  200  A    between atoms: _490  and  _491
REMARK  201  A    between atoms: _496  and  _497
REMARK  202  A    between atoms: _499  and  _501
REMARK  203  A    between atoms: _501  and  _502
REMARK  204  A    between atoms: _501  and  _504
REMARK  205  A    between atoms: _504  and  _505
REMARK  206  A    between atoms: _508  and  _510
REMARK  207  A    between atoms: _510  and  _511
REMARK  208  A    between atoms: _510  and  _513
REMARK  209  A    between atoms: _513  and  _514
REMARK  210  A    between atoms: _516  and  _518
REMARK  211  A    between atoms: _518  and  _519
REMARK  212  A    between atoms: _521  and  _523
REMARK  213  A    between atoms: _523  and  _524
REMARK  214  A    between atoms: _523  and  _526
REMARK  215  A    between atoms: _526  and  _527
REMARK  216  A    between atoms: _533  and  _535
REMARK  217  A    between atoms: _535  and  _536
REMARK  218  A    between atoms: _535  and  _538
REMARK  219  A    between atoms: _538  and  _539
REMARK  220  A    between atoms: _542  and  _544
REMARK  221  A    between atoms: _544  and  _545
REMARK  222  A    between atoms: _548  and  _550
REMARK  223  A    between atoms: _550  and  _551
REMARK  224  A    between atoms: _550  and  _553
REMARK  225  A    between atoms: _553  and  _554
REMARK  226  A    between atoms: _557  and  _559
REMARK  227  A    between atoms: _559  and  _560
REMARK  228  A    between atoms: _559  and  _562
REMARK  229  A    between atoms: _562  and  _563
REMARK  230  A    between atoms: _568  and  _570
REMARK  231  A    between atoms: _570  and  _571
REMARK  232  A    between atoms: _574  and  _576
REMARK  233  A    between atoms: _576  and  _577
REMARK  234  A    between atoms: _576  and  _579
REMARK  235  A    between atoms: _579  and  _580
REMARK  236  A    between atoms: _580  and  _581
REMARK  237  A    between atoms: _583  and  _585
REMARK  238  A    between atoms: _585  and  _586
REMARK  239  A    between atoms: _585  and  _588
REMARK  240  A    between atoms: _588  and  _589
REMARK  241  A    between atoms: _592  and  _594
REMARK  242  A    between atoms: _594  and  _595
REMARK  243  A    between atoms: _594  and  _597
REMARK  244  A    between atoms: _597  and  _598
REMARK  245  A    between atoms: _602  and  _603
REMARK  246  A    between atoms: _608  and  _610
REMARK  247  A    between atoms: _610  and  _611
REMARK  248  A    between atoms: _610  and  _613
REMARK  249  A    between atoms: _613  and  _614
REMARK  250  A    between atoms: _617  and  _619
REMARK  251  A    between atoms: _619  and  _620
REMARK  252  A    between atoms: _622  and  _624
REMARK  253  A    between atoms: _624  and  _625
REMARK  254  A    between atoms: _624  and  _627
REMARK  255  A    between atoms: _627  and  _628
REMARK  256  A    between atoms: _631  and  _633
REMARK  257  A    between atoms: _633  and  _634
REMARK  258  A    between atoms: _633  and  _636
REMARK  259  A    between atoms: _636  and  _637
REMARK  260  A    between atoms: _647  and  _649
REMARK  261  A    between atoms: _649  and  _650
REMARK  262  A    between atoms: _653  and  _655
REMARK  263  A    between atoms: _655  and  _656
REMARK  264  A    between atoms: _655  and  _658
REMARK  265  A    between atoms: _658  and  _659
REMARK  266  A    between atoms: _662  and  _664
REMARK  267  A    between atoms: _664  and  _665
REMARK  268  A    between atoms: _667  and  _669
REMARK  269  A    between atoms: _669  and  _670
REMARK  270  A    between atoms: _673  and  _675
REMARK  271  A    between atoms: _675  and  _676
REMARK  272  A    between atoms: _675  and  _678
REMARK  273  A    between atoms: _678  and  _679
REMARK  274  A    between atoms: _682  and  _684
REMARK  275  A    between atoms: _684  and  _685
REMARK  276  A    between atoms: _684  and  _687
REMARK  277  A    between atoms: _687  and  _688
REMARK                            x       y       z     vdW  Elec       q    Type
REMARK                         _______ _______ _______ _____ _____    ______ ____
ROOT
ATOM      1  O   HOH     1      -5.694 -22.350 -24.651  0.00  0.00    +0.000 OA
ENDROOT
TORSDOF 0
REMARK  Name = ../refined-set-2016/3own/3own_pocket.pdb
REMARK  277 active torsions:
REMARK  status: ('A' for Active; 'I' for Inactive)
REMARK    1  A    between atoms: _1  and  _3
REMARK    2  A    between atoms: _3  and  _4
REMARK    3  A    between atoms: _3  and  _6
REMARK    4  A    between atoms: _6  and  _7
REMARK    5  A    between atoms: _12  and  _13
REMARK    6  A    between atoms: _15  and  _17
REMARK    7  A    between atoms: _17  and  _18
REMARK    8  A    between atoms: _17  and  _20
REMARK    9  A    between atoms: _20  and  _21
REMARK   10  A    between atoms: _24  and  _26
REMARK   11  A    between atoms: _26  and  _27
REMARK   12  A    between atoms: _26  and  _29
REMARK   13  A    between atoms: _29  and  _30
REMARK   14  A    between atoms: _33  and  _35
REMARK   15  A    between atoms: _35  and  _36
REMARK   16  A    between atoms: _35  and  _38
REMARK   17  A    between atoms: _38  and  _39
REMARK   18  A    between atoms: _39  and  _40
REMARK   19  A    between atoms: _45  and  _47
REMARK   20  A    between atoms: _47  and  _48
REMARK   21  A    between atoms: _47  and  _50
REMARK   22  A    between atoms: _50  and  _51
REMARK   23  A    between atoms: _56  and  _57
REMARK   24  A    between atoms: _59  and  _61
REMARK   25  A    between atoms: _61  and  _62
REMARK   26  A    between atoms: _61  and  _64
REMARK   27  A    between atoms: _67  and  _69
REMARK   28  A    between atoms: _69  and  _70
REMARK   29  A    between atoms: _69  and  _72
REMARK   30  A    between atoms: _72  and  _73
REMARK   31  A    between atoms: _79  and  _81
REMARK   32  A    between atoms: _81  and  _82
REMARK   33  A    between atoms: _81  and  _84
REMARK   34  A    between atoms: _84  and  _85
REMARK   35  A    between atoms: _88  and  _90
REMARK   36  A    between atoms: _90  and  _91
REMARK   37  A    between atoms: _90  and  _93
REMARK   38  A    between atoms: _93  and  _94
REMARK   39  A    between atoms: _97  and  _99
REMARK   40  A    between atoms: _99  and  _100
REMARK   41  A    between atoms: _102  and  _104
REMARK   42  A    between atoms: _104  and  _105
REMARK   43  A    between atoms: _104  and  _107
REMARK   44  A    between atoms: _107  and  _108
REMARK   45  A    between atoms: _110  and  _112
REMARK   46  A    between atoms: _112  and  _113
REMARK   47  A    between atoms: _112  and  _115
REMARK   48  A    between atoms: _115  and  _116
REMARK   49  A    between atoms: _118  and  _120
REMARK   50  A    between atoms: _120  and  _121
REMARK   51  A    between atoms: _120  and  _123
REMARK   52  A    between atoms: _123  and  _124
REMARK   53  A    between atoms: _129  and  _131
REMARK   54  A    between atoms: _131  and  _132
REMARK   55  A    between atoms: _131  and  _134
REMARK   56  A    between atoms: _134  and  _135
REMARK   57  A    between atoms: _145  and  _147
REMARK   58  A    between atoms: _147  and  _148
REMARK   59  A    between atoms: _147  and  _150
REMARK   60  A    between atoms: _150  and  _151
REMARK   61  A    between atoms: _154  and  _156
REMARK   62  A    between atoms: _156  and  _157
REMARK   63  A    between atoms: _156  and  _159
REMARK   64  A    between atoms: _159  and  _160
REMARK   65  A    between atoms: _163  and  _165
REMARK   66  A    between atoms: _165  and  _166
REMARK   67  A    between atoms: _165  and  _168
REMARK   68  A    between atoms: _168  and  _169
REMARK   69  A    between atoms: _169  and  _170
REMARK   70  A    between atoms: _170  and  _171
REMARK   71  A    between atoms: _180  and  _182
REMARK   72  A    between atoms: _182  and  _183
REMARK   73  A    between atoms: _182  and  _185
REMARK   74  A    between atoms: _185  and  _186
REMARK   75  A    between atoms: _191  and  _192
REMARK   76  A    between atoms: _194  and  _196
REMARK   77  A    between atoms: _196  and  _197
REMARK   78  A    between atoms: _196  and  _199
REMARK   79  A    between atoms: _199  and  _200
REMARK   80  A    between atoms: _202  and  _204
REMARK   81  A    between atoms: _204  and  _205
REMARK   82  A    between atoms: _204  and  _207
REMARK   83  A    between atoms: _207  and  _208
REMARK   84  A    between atoms: _211  and  _213
REMARK   85  A    between atoms: _213  and  _214
REMARK   86  A    between atoms: _216  and  _218
REMARK   87  A    between atoms: _218  and  _219
REMARK   88  A    between atoms: _218  and  _221
REMARK   89  A    between atoms: _224  and  _226
REMARK   90  A    between atoms: _226  and  _227
REMARK   91  A    between atoms: _226  and  _229
REMARK   92  A    between atoms: _229  and  _230
REMARK   93  A    between atoms: _230  and  _231
REMARK   94  A    between atoms: _233  and  _235
REMARK   95  A    between atoms: _235  and  _236
REMARK   96  A    between atoms: _239  and  _241
REMARK   97  A    between atoms: _241  and  _242
REMARK   98  A    between atoms: _241  and  _244
REMARK   99  A    between atoms: _244  and  _245
REMARK  100  A    between atoms: _249  and  _250
REMARK  101  A    between atoms: _255  and  _257
REMARK  102  A    between atoms: _257  and  _258
REMARK  103  A    between atoms: _257  and  _260
REMARK  104  A    between atoms: _260  and  _261
REMARK  105  A    between atoms: _267  and  _269
REMARK  106  A    between atoms: _269  and  _270
REMARK  107  A    between atoms: _269  and  _272
REMARK  108  A    between atoms: _272  and  _273
REMARK  109  A    between atoms: _273  and  _274
REMARK  110  A    between atoms: _276  and  _278
REMARK  111  A    between atoms: _278  and  _279
REMARK  112  A    between atoms: _278  and  _281
REMARK  113  A    between atoms: _281  and  _282
REMARK  114  A    between atoms: _285  and  _287
REMARK  115  A    between atoms: _287  and  _288
REMARK  116  A    between atoms: _291  and  _293
REMARK  117  A    between atoms: _293  and  _294
REMARK  118  A    between atoms: _293  and  _296
REMARK  119  A    between atoms: _296  and  _297
REMARK  120  A    between atoms: _297  and  _298
REMARK  121  A    between atoms: _301  and  _303
REMARK  122  A    between atoms: _303  and  _304
REMARK  123  A    between atoms: _303  and  _306
REMARK  124  A    between atoms: _306  and  _307
REMARK  125  A    between atoms: _313  and  _315
REMARK  126  A    between atoms: _315  and  _316
REMARK  127  A    between atoms: _315  and  _318
REMARK  128  A    between atoms: _318  and  _319
REMARK  129  A    between atoms: _322  and  _324
REMARK  130  A    between atoms: _324  and  _325
REMARK  131  A    between atoms: _327  and  _329
REMARK  132  A    between atoms: _329  and  _330
REMARK  133  A    between atoms: _329  and  _332
REMARK  134  A    between atoms: _335  and  _337
REMARK  135  A    between atoms: _337  and  _338
REMARK  136  A    between atoms: _337  and  _340
REMARK  137  A    between atoms: _343  and  _345
REMARK  138  A    between atoms: _345  and  _346
REMARK  139  A    between atoms: _345  and  _348
REMARK  140  A    between atoms: _348  and  _349
REMARK  141  A    between atoms: _349  and  _350
REMARK  142  A    between atoms: _352  and  _354
REMARK  143  A    between atoms: _354  and  _355
REMARK  144  A    between atoms: _357  and  _359
REMARK  145  A    between atoms: _359  and  _360
REMARK  146  A    between atoms: _359  and  _362
REMARK  147  A    between atoms: _362  and  _363
REMARK  148  A    between atoms: _369  and  _371
REMARK  149  A    between atoms: _371  and  _372
REMARK  150  A    between atoms: _371  and  _374
REMARK  151  A    between atoms: _374  and  _375
REMARK  152  A    between atoms: _375  and  _376
REMARK  153  A    between atoms: _379  and  _381
REMARK  154  A    between atoms: _381  and  _382
REMARK  155  A    between atoms: _381  and  _384
REMARK  156  A    between atoms: _384  and  _385
REMARK  157  A    between atoms: _385  and  _386
REMARK  158  A    between atoms: _391  and  _393
REMARK  159  A    between atoms: _393  and  _394
REMARK  160  A    between atoms: _397  and  _399
REMARK  161  A    between atoms: _399  and  _400
REMARK  162  A    between atoms: _399  and  _402
REMARK  163  A    between atoms: _402  and  _403
REMARK  164  A    between atoms: _406  and  _408
REMARK  165  A    between atoms: _408  and  _409
REMARK  166  A    between atoms: _411  and  _413
REMARK  167  A    between atoms: _413  and  _414
REMARK  168  A    between atoms: _413  and  _416
REMARK  169  A    between atoms: _419  and  _421
REMARK  170  A    between atoms: _421  and  _422
REMARK  171  A    between atoms: _421  and  _424
REMARK  172  A    between atoms: _424  and  _425
REMARK  173  A    between atoms: _425  and  _426
REMARK  174  A    between atoms: _431  and  _433
REMARK  175  A    between atoms: _433  and  _434
REMARK  176  A    between atoms: _433  and  _436
REMARK  177  A    between atoms: _436  and  _437
REMARK  178  A    between atoms: _440  and  _442
REMARK  179  A    between atoms: _442  and  _443
REMARK  180  A    between atoms: _442  and  _445
REMARK  181  A    between atoms: _448  and  _450
REMARK  182  A    between atoms: _450  and  _451
REMARK  183  A    between atoms: _450  and  _453
REMARK  184  A    between atoms: _453  and  _454
REMARK  185  A    between atoms: _457  and  _459
REMARK  186  A    between atoms: _459  and  _460
REMARK  187  A    between atoms: _459  and  _462
REMARK  188  A    between atoms: _462  and  _463
REMARK  189  A    between atoms: _466  and  _468
REMARK  190  A    between atoms: _468  and  _469
REMARK  191  A    between atoms: _471  and  _473
REMARK  192  A    between atoms: _473  and  _474
REMARK  193  A    between atoms: _477  and  _479
REMARK  194  A    between atoms: _479  and  _480
REMARK  195  A    between atoms: _479  and  _482
REMARK  196  A    between atoms: _482  and  _483
REMARK  197  A    between atoms: _485  and  _487
REMARK  198  A    between atoms: _487  and  _488
REMARK  199  A    between atoms: _487  and  _490
REMARK  200  A    between atoms: _490  and  _491
REMARK  201  A    between atoms: _496  and  _497
REMARK  202  A    between atoms: _499  and  _501
REMARK  203  A    between atoms: _501  and  _502
REMARK  204  A    between atoms: _501  and  _504
REMARK  205  A    between atoms: _504  and  _505
REMARK  206  A    between atoms: _508  and  _510
REMARK  207  A    between atoms: _510  and  _511
REMARK  208  A    between atoms: _510  and  _513
REMARK  209  A    between atoms: _513  and  _514
REMARK  210  A    between atoms: _516  and  _518
REMARK  211  A    between atoms: _518  and  _519
REMARK  212  A    between atoms: _521  and  _523
REMARK  213  A    between atoms: _523  and  _524
REMARK  214  A    between atoms: _523  and  _526
REMARK  215  A    between atoms: _526  and  _527
REMARK  216  A    between atoms: _533  and  _535
REMARK  217  A    between atoms: _535  and  _536
REMARK  218  A    between atoms: _535  and  _538
REMARK  219  A    between atoms: _538  and  _539
REMARK  220  A    between atoms: _542  and  _544
REMARK  221  A    between atoms: _544  and  _545
REMARK  222  A    between atoms: _548  and  _550
REMARK  223  A    between atoms: _550  and  _551
REMARK  224  A    between atoms: _550  and  _553
REMARK  225  A    between atoms: _553  and  _554
REMARK  226  A    between atoms: _557  and  _559
REMARK  227  A    between atoms: _559  and  _560
REMARK  228  A    between atoms: _559  and  _562
REMARK  229  A    between atoms: _562  and  _563
REMARK  230  A    between atoms: _568  and  _570
REMARK  231  A    between atoms: _570  and  _571
REMARK  232  A    between atoms: _574  and  _576
REMARK  233  A    between atoms: _576  and  _577
REMARK  234  A    between atoms: _576  and  _579
REMARK  235  A    between atoms: _579  and  _580
REMARK  236  A    between atoms: _580  and  _581
REMARK  237  A    between atoms: _583  and  _585
REMARK  238  A    between atoms: _585  and  _586
REMARK  239  A    between atoms: _585  and  _588
REMARK  240  A    between atoms: _588  and  _589
REMARK  241  A    between atoms: _592  and  _594
REMARK  242  A    between atoms: _594  and  _595
REMARK  243  A    between atoms: _594  and  _597
REMARK  244  A    between atoms: _597  and  _598
REMARK  245  A    between atoms: _602  and  _603
REMARK  246  A    between atoms: _608  and  _610
REMARK  247  A    between atoms: _610  and  _611
REMARK  248  A    between atoms: _610  and  _613
REMARK  249  A    between atoms: _613  and  _614
REMARK  250  A    between atoms: _617  and  _619
REMARK  251  A    between atoms: _619  and  _620
REMARK  252  A    between atoms: _622  and  _624
REMARK  253  A    between atoms: _624  and  _625
REMARK  254  A    between atoms: _624  and  _627
REMARK  255  A    between atoms: _627  and  _628
REMARK  256  A    between atoms: _631  and  _633
REMARK  257  A    between atoms: _633  and  _634
REMARK  258  A    between atoms: _633  and  _636
REMARK  259  A    between atoms: _636  and  _637
REMARK  260  A    between atoms: _647  and  _649
REMARK  261  A    between atoms: _649  and  _650
REMARK  262  A    between atoms: _653  and  _655
REMARK  263  A    between atoms: _655  and  _656
REMARK  264  A    between atoms: _655  and  _658
REMARK  265  A    between atoms: _658  and  _659
REMARK  266  A    between atoms: _662  and  _664
REMARK  267  A    between atoms: _664  and  _665
REMARK  268  A    between atoms: _667  and  _669
REMARK  269  A    between atoms: _669  and  _670
REMARK  270  A    between atoms: _673  and  _675
REMARK  271  A    between atoms: _675  and  _676
REMARK  272  A    between atoms: _675  and  _678
REMARK  273  A    between atoms: _678  and  _679
REMARK  274  A    between atoms: _682  and  _684
REMARK  275  A    between atoms: _684  and  _685
REMARK  276  A    between atoms: _684  and  _687
REMARK  277  A    between atoms: _687  and  _688
REMARK                            x       y       z     vdW  Elec       q    Type
REMARK                         _______ _______ _______ _____ _____    ______ ____
ROOT
ATOM      1  O   HOH     1     -10.392 -36.431 -32.673  0.00  0.00    +0.000 OA
ENDROOT
TORSDOF 0
REMARK  Name = ../refined-set-2016/3own/3own_pocket.pdb
REMARK  277 active torsions:
REMARK  status: ('A' for Active; 'I' for Inactive)
REMARK    1  A    between atoms: _1  and  _3
REMARK    2  A    between atoms: _3  and  _4
REMARK    3  A    between atoms: _3  and  _6
REMARK    4  A    between atoms: _6  and  _7
REMARK    5  A    between atoms: _12  and  _13
REMARK    6  A    between atoms: _15  and  _17
REMARK    7  A    between atoms: _17  and  _18
REMARK    8  A    between atoms: _17  and  _20
REMARK    9  A    between atoms: _20  and  _21
REMARK   10  A    between atoms: _24  and  _26
REMARK   11  A    between atoms: _26  and  _27
REMARK   12  A    between atoms: _26  and  _29
REMARK   13  A    between atoms: _29  and  _30
REMARK   14  A    between atoms: _33  and  _35
REMARK   15  A    between atoms: _35  and  _36
REMARK   16  A    between atoms: _35  and  _38
REMARK   17  A    between atoms: _38  and  _39
REMARK   18  A    between atoms: _39  and  _40
REMARK   19  A    between atoms: _45  and  _47
REMARK   20  A    between atoms: _47  and  _48
REMARK   21  A    between atoms: _47  and  _50
REMARK   22  A    between atoms: _50  and  _51
REMARK   23  A    between atoms: _56  and  _57
REMARK   24  A    between atoms: _59  and  _61
REMARK   25  A    between atoms: _61  and  _62
REMARK   26  A    between atoms: _61  and  _64
REMARK   27  A    between atoms: _67  and  _69
REMARK   28  A    between atoms: _69  and  _70
REMARK   29  A    between atoms: _69  and  _72
REMARK   30  A    between atoms: _72  and  _73
REMARK   31  A    between atoms: _79  and  _81
REMARK   32  A    between atoms: _81  and  _82
REMARK   33  A    between atoms: _81  and  _84
REMARK   34  A    between atoms: _84  and  _85
REMARK   35  A    between atoms: _88  and  _90
REMARK   36  A    between atoms: _90  and  _91
REMARK   37  A    between atoms: _90  and  _93
REMARK   38  A    between atoms: _93  and  _94
REMARK   39  A    between atoms: _97  and  _99
REMARK   40  A    between atoms: _99  and  _100
REMARK   41  A    between atoms: _102  and  _104
REMARK   42  A    between atoms: _104  and  _105
REMARK   43  A    between atoms: _104  and  _107
REMARK   44  A    between atoms: _107  and  _108
REMARK   45  A    between atoms: _110  and  _112
REMARK   46  A    between atoms: _112  and  _113
REMARK   47  A    between atoms: _112  and  _115
REMARK   48  A    between atoms: _115  and  _116
REMARK   49  A    between atoms: _118  and  _120
REMARK   50  A    between atoms: _120  and  _121
REMARK   51  A    between atoms: _120  and  _123
REMARK   52  A    between atoms: _123  and  _124
REMARK   53  A    between atoms: _129  and  _131
REMARK   54  A    between atoms: _131  and  _132
REMARK   55  A    between atoms: _131  and  _134
REMARK   56  A    between atoms: _134  and  _135
REMARK   57  A    between atoms: _145  and  _147
REMARK   58  A    between atoms: _147  and  _148
REMARK   59  A    between atoms: _147  and  _150
REMARK   60  A    between atoms: _150  and  _151
REMARK   61  A    between atoms: _154  and  _156
REMARK   62  A    between atoms: _156  and  _157
REMARK   63  A    between atoms: _156  and  _159
REMARK   64  A    between atoms: _159  and  _160
REMARK   65  A    between atoms: _163  and  _165
REMARK   66  A    between atoms: _165  and  _166
REMARK   67  A    between atoms: _165  and  _168
REMARK   68  A    between atoms: _168  and  _169
REMARK   69  A    between atoms: _169  and  _170
REMARK   70  A    between atoms: _170  and  _171
REMARK   71  A    between atoms: _180  and  _182
REMARK   72  A    between atoms: _182  and  _183
REMARK   73  A    between atoms: _182  and  _185
REMARK   74  A    between atoms: _185  and  _186
REMARK   75  A    between atoms: _191  and  _192
REMARK   76  A    between atoms: _194  and  _196
REMARK   77  A    between atoms: _196  and  _197
REMARK   78  A    between atoms: _196  and  _199
REMARK   79  A    between atoms: _199  and  _200
REMARK   80  A    between atoms: _202  and  _204
REMARK   81  A    between atoms: _204  and  _205
REMARK   82  A    between atoms: _204  and  _207
REMARK   83  A    between atoms: _207  and  _208
REMARK   84  A    between atoms: _211  and  _213
REMARK   85  A    between atoms: _213  and  _214
REMARK   86  A    between atoms: _216  and  _218
REMARK   87  A    between atoms: _218  and  _219
REMARK   88  A    between atoms: _218  and  _221
REMARK   89  A    between atoms: _224  and  _226
REMARK   90  A    between atoms: _226  and  _227
REMARK   91  A    between atoms: _226  and  _229
REMARK   92  A    between atoms: _229  and  _230
REMARK   93  A    between atoms: _230  and  _231
REMARK   94  A    between atoms: _233  and  _235
REMARK   95  A    between atoms: _235  and  _236
REMARK   96  A    between atoms: _239  and  _241
REMARK   97  A    between atoms: _241  and  _242
REMARK   98  A    between atoms: _241  and  _244
REMARK   99  A    between atoms: _244  and  _245
REMARK  100  A    between atoms: _249  and  _250
REMARK  101  A    between atoms: _255  and  _257
REMARK  102  A    between atoms: _257  and  _258
REMARK  103  A    between atoms: _257  and  _260
REMARK  104  A    between atoms: _260  and  _261
REMARK  105  A    between atoms: _267  and  _269
REMARK  106  A    between atoms: _269  and  _270
REMARK  107  A    between atoms: _269  and  _272
REMARK  108  A    between atoms: _272  and  _273
REMARK  109  A    between atoms: _273  and  _274
REMARK  110  A    between atoms: _276  and  _278
REMARK  111  A    between atoms: _278  and  _279
REMARK  112  A    between atoms: _278  and  _281
REMARK  113  A    between atoms: _281  and  _282
REMARK  114  A    between atoms: _285  and  _287
REMARK  115  A    between atoms: _287  and  _288
REMARK  116  A    between atoms: _291  and  _293
REMARK  117  A    between atoms: _293  and  _294
REMARK  118  A    between atoms: _293  and  _296
REMARK  119  A    between atoms: _296  and  _297
REMARK  120  A    between atoms: _297  and  _298
REMARK  121  A    between atoms: _301  and  _303
REMARK  122  A    between atoms: _303  and  _304
REMARK  123  A    between atoms: _303  and  _306
REMARK  124  A    between atoms: _306  and  _307
REMARK  125  A    between atoms: _313  and  _315
REMARK  126  A    between atoms: _315  and  _316
REMARK  127  A    between atoms: _315  and  _318
REMARK  128  A    between atoms: _318  and  _319
REMARK  129  A    between atoms: _322  and  _324
REMARK  130  A    between atoms: _324  and  _325
REMARK  131  A    between atoms: _327  and  _329
REMARK  132  A    between atoms: _329  and  _330
REMARK  133  A    between atoms: _329  and  _332
REMARK  134  A    between atoms: _335  and  _337
REMARK  135  A    between atoms: _337  and  _338
REMARK  136  A    between atoms: _337  and  _340
REMARK  137  A    between atoms: _343  and  _345
REMARK  138  A    between atoms: _345  and  _346
REMARK  139  A    between atoms: _345  and  _348
REMARK  140  A    between atoms: _348  and  _349
REMARK  141  A    between atoms: _349  and  _350
REMARK  142  A    between atoms: _352  and  _354
REMARK  143  A    between atoms: _354  and  _355
REMARK  144  A    between atoms: _357  and  _359
REMARK  145  A    between atoms: _359  and  _360
REMARK  146  A    between atoms: _359  and  _362
REMARK  147  A    between atoms: _362  and  _363
REMARK  148  A    between atoms: _369  and  _371
REMARK  149  A    between atoms: _371  and  _372
REMARK  150  A    between atoms: _371  and  _374
REMARK  151  A    between atoms: _374  and  _375
REMARK  152  A    between atoms: _375  and  _376
REMARK  153  A    between atoms: _379  and  _381
REMARK  154  A    between atoms: _381  and  _382
REMARK  155  A    between atoms: _381  and  _384
REMARK  156  A    between atoms: _384  and  _385
REMARK  157  A    between atoms: _385  and  _386
REMARK  158  A    between atoms: _391  and  _393
REMARK  159  A    between atoms: _393  and  _394
REMARK  160  A    between atoms: _397  and  _399
REMARK  161  A    between atoms: _399  and  _400
REMARK  162  A    between atoms: _399  and  _402
REMARK  163  A    between atoms: _402  and  _403
REMARK  164  A    between atoms: _406  and  _408
REMARK  165  A    between atoms: _408  and  _409
REMARK  166  A    between atoms: _411  and  _413
REMARK  167  A    between atoms: _413  and  _414
REMARK  168  A    between atoms: _413  and  _416
REMARK  169  A    between atoms: _419  and  _421
REMARK  170  A    between atoms: _421  and  _422
REMARK  171  A    between atoms: _421  and  _424
REMARK  172  A    between atoms: _424  and  _425
REMARK  173  A    between atoms: _425  and  _426
REMARK  174  A    between atoms: _431  and  _433
REMARK  175  A    between atoms: _433  and  _434
REMARK  176  A    between atoms: _433  and  _436
REMARK  177  A    between atoms: _436  and  _437
REMARK  178  A    between atoms: _440  and  _442
REMARK  179  A    between atoms: _442  and  _443
REMARK  180  A    between atoms: _442  and  _445
REMARK  181  A    between atoms: _448  and  _450
REMARK  182  A    between atoms: _450  and  _451
REMARK  183  A    between atoms: _450  and  _453
REMARK  184  A    between atoms: _453  and  _454
REMARK  185  A    between atoms: _457  and  _459
REMARK  186  A    between atoms: _459  and  _460
REMARK  187  A    between atoms: _459  and  _462
REMARK  188  A    between atoms: _462  and  _463
REMARK  189  A    between atoms: _466  and  _468
REMARK  190  A    between atoms: _468  and  _469
REMARK  191  A    between atoms: _471  and  _473
REMARK  192  A    between atoms: _473  and  _474
REMARK  193  A    between atoms: _477  and  _479
REMARK  194  A    between atoms: _479  and  _480
REMARK  195  A    between atoms: _479  and  _482
REMARK  196  A    between atoms: _482  and  _483
REMARK  197  A    between atoms: _485  and  _487
REMARK  198  A    between atoms: _487  and  _488
REMARK  199  A    between atoms: _487  and  _490
REMARK  200  A    between atoms: _490  and  _491
REMARK  201  A    between atoms: _496  and  _497
REMARK  202  A    between atoms: _499  and  _501
REMARK  203  A    between atoms: _501  and  _502
REMARK  204  A    between atoms: _501  and  _504
REMARK  205  A    between atoms: _504  and  _505
REMARK  206  A    between atoms: _508  and  _510
REMARK  207  A    between atoms: _510  and  _511
REMARK  208  A    between atoms: _510  and  _513
REMARK  209  A    between atoms: _513  and  _514
REMARK  210  A    between atoms: _516  and  _518
REMARK  211  A    between atoms: _518  and  _519
REMARK  212  A    between atoms: _521  and  _523
REMARK  213  A    between atoms: _523  and  _524
REMARK  214  A    between atoms: _523  and  _526
REMARK  215  A    between atoms: _526  and  _527
REMARK  216  A    between atoms: _533  and  _535
REMARK  217  A    between atoms: _535  and  _536
REMARK  218  A    between atoms: _535  and  _538
REMARK  219  A    between atoms: _538  and  _539
REMARK  220  A    between atoms: _542  and  _544
REMARK  221  A    between atoms: _544  and  _545
REMARK  222  A    between atoms: _548  and  _550
REMARK  223  A    between atoms: _550  and  _551
REMARK  224  A    between atoms: _550  and  _553
REMARK  225  A    between atoms: _553  and  _554
REMARK  226  A    between atoms: _557  and  _559
REMARK  227  A    between atoms: _559  and  _560
REMARK  228  A    between atoms: _559  and  _562
REMARK  229  A    between atoms: _562  and  _563
REMARK  230  A    between atoms: _568  and  _570
REMARK  231  A    between atoms: _570  and  _571
REMARK  232  A    between atoms: _574  and  _576
REMARK  233  A    between atoms: _576  and  _577
REMARK  234  A    between atoms: _576  and  _579
REMARK  235  A    between atoms: _579  and  _580
REMARK  236  A    between atoms: _580  and  _581
REMARK  237  A    between atoms: _583  and  _585
REMARK  238  A    between atoms: _585  and  _586
REMARK  239  A    between atoms: _585  and  _588
REMARK  240  A    between atoms: _588  and  _589
REMARK  241  A    between atoms: _592  and  _594
REMARK  242  A    between atoms: _594  and  _595
REMARK  243  A    between atoms: _594  and  _597
REMARK  244  A    between atoms: _597  and  _598
REMARK  245  A    between atoms: _602  and  _603
REMARK  246  A    between atoms: _608  and  _610
REMARK  247  A    between atoms: _610  and  _611
REMARK  248  A    between atoms: _610  and  _613
REMARK  249  A    between atoms: _613  and  _614
REMARK  250  A    between atoms: _617  and  _619
REMARK  251  A    between atoms: _619  and  _620
REMARK  252  A    between atoms: _622  and  _624
REMARK  253  A    between atoms: _624  and  _625
REMARK  254  A    between atoms: _624  and  _627
REMARK  255  A    between atoms: _627  and  _628
REMARK  256  A    between atoms: _631  and  _633
REMARK  257  A    between atoms: _633  and  _634
REMARK  258  A    between atoms: _633  and  _636
REMARK  259  A    between atoms: _636  and  _637
REMARK  260  A    between atoms: _647  and  _649
REMARK  261  A    between atoms: _649  and  _650
REMARK  262  A    between atoms: _653  and  _655
REMARK  263  A    between atoms: _655  and  _656
REMARK  264  A    between atoms: _655  and  _658
REMARK  265  A    between atoms: _658  and  _659
REMARK  266  A    between atoms: _662  and  _664
REMARK  267  A    between atoms: _664  and  _665
REMARK  268  A    between atoms: _667  and  _669
REMARK  269  A    between atoms: _669  and  _670
REMARK  270  A    between atoms: _673  and  _675
REMARK  271  A    between atoms: _675  and  _676
REMARK  272  A    between atoms: _675  and  _678
REMARK  273  A    between atoms: _678  and  _679
REMARK  274  A    between atoms: _682  and  _684
REMARK  275  A    between atoms: _684  and  _685
REMARK  276  A    between atoms: _684  and  _687
REMARK  277  A    between atoms: _687  and  _688
REMARK                            x       y       z     vdW  Elec       q    Type
REMARK                         _______ _______ _______ _____ _____    ______ ____
ROOT
ATOM      1  O   HOH     1      -6.842 -35.911 -42.147  0.00  0.00    +0.000 OA
ENDROOT
TORSDOF 0
