REMARK  Name = ../refined-set-2016/1g4j/1g4j_pocket.pdb
REMARK  163 active torsions:
REMARK  status: ('A' for Active; 'I' for Inactive)
REMARK    1  A    between atoms: _1  and  _3
REMARK    2  A    between atoms: _3  and  _4
REMARK    3  A    between atoms: _3  and  _6
REMARK    4  A    between atoms: _6  and  _7
REMARK    5  A    between atoms: _12  and  _14
REMARK    6  A    between atoms: _14  and  _15
REMARK    7  A    between atoms: _14  and  _17
REMARK    8  A    between atoms: _17  and  _18
REMARK    9  A    between atoms: _28  and  _30
REMARK   10  A    between atoms: _30  and  _31
REMARK   11  A    between atoms: _30  and  _33
REMARK   12  A    between atoms: _33  and  _34
REMARK   13  A    between atoms: _39  and  _40
REMARK   14  A    between atoms: _42  and  _44
REMARK   15  A    between atoms: _44  and  _45
REMARK   16  A    between atoms: _44  and  _47
REMARK   17  A    between atoms: _47  and  _48
REMARK   18  A    between atoms: _54  and  _56
REMARK   19  A    between atoms: _56  and  _57
REMARK   20  A    between atoms: _56  and  _59
REMARK   21  A    between atoms: _59  and  _60
REMARK   22  A    between atoms: _63  and  _64
REMARK   23  A    between atoms: _69  and  _71
REMARK   24  A    between atoms: _71  and  _72
REMARK   25  A    between atoms: _71  and  _74
REMARK   26  A    between atoms: _74  and  _75
REMARK   27  A    between atoms: _80  and  _82
REMARK   28  A    between atoms: _82  and  _83
REMARK   29  A    between atoms: _82  and  _85
REMARK   30  A    between atoms: _85  and  _86
REMARK   31  A    between atoms: _91  and  _93
REMARK   32  A    between atoms: _93  and  _94
REMARK   33  A    between atoms: _97  and  _99
REMARK   34  A    between atoms: _99  and  _100
REMARK   35  A    between atoms: _99  and  _102
REMARK   36  A    between atoms: _102  and  _103
REMARK   37  A    between atoms: _108  and  _110
REMARK   38  A    between atoms: _110  and  _111
REMARK   39  A    between atoms: _110  and  _113
REMARK   40  A    between atoms: _113  and  _114
REMARK   41  A    between atoms: _117  and  _119
REMARK   42  A    between atoms: _119  and  _120
REMARK   43  A    between atoms: _119  and  _122
REMARK   44  A    between atoms: _122  and  _123
REMARK   45  A    between atoms: _123  and  _124
REMARK   46  A    between atoms: _129  and  _131
REMARK   47  A    between atoms: _131  and  _132
REMARK   48  A    between atoms: _131  and  _134
REMARK   49  A    between atoms: _134  and  _135
REMARK   50  A    between atoms: _141  and  _143
REMARK   51  A    between atoms: _154  and  _157
REMARK   52  A    between atoms: _157  and  _158
REMARK   53  A    between atoms: _166  and  _167
REMARK   54  A    between atoms: _175  and  _177
REMARK   55  A    between atoms: _177  and  _178
REMARK   56  A    between atoms: _177  and  _180
REMARK   57  A    between atoms: _180  and  _181
REMARK   58  A    between atoms: _181  and  _182
REMARK   59  A    between atoms: _185  and  _187
REMARK   60  A    between atoms: _187  and  _188
REMARK   61  A    between atoms: _187  and  _190
REMARK   62  A    between atoms: _190  and  _191
REMARK   63  A    between atoms: _196  and  _198
REMARK   64  A    between atoms: _198  and  _199
REMARK   65  A    between atoms: _198  and  _201
REMARK   66  A    between atoms: _201  and  _202
REMARK   67  A    between atoms: _202  and  _203
REMARK   68  A    between atoms: _206  and  _208
REMARK   69  A    between atoms: _208  and  _209
REMARK   70  A    between atoms: _208  and  _211
REMARK   71  A    between atoms: _211  and  _212
REMARK   72  A    between atoms: _215  and  _217
REMARK   73  A    between atoms: _217  and  _218
REMARK   74  A    between atoms: _217  and  _220
REMARK   75  A    between atoms: _220  and  _221
REMARK   76  A    between atoms: _222  and  ZN_456
REMARK   77  A    between atoms: _226  and  _228
REMARK   78  A    between atoms: _228  and  _229
REMARK   79  A    between atoms: _228  and  _231
REMARK   80  A    between atoms: _231  and  _232
REMARK   81  A    between atoms: _235  and  _237
REMARK   82  A    between atoms: _237  and  _238
REMARK   83  A    between atoms: _237  and  _240
REMARK   84  A    between atoms: _243  and  _245
REMARK   85  A    between atoms: _245  and  _246
REMARK   86  A    between atoms: _245  and  _248
REMARK   87  A    between atoms: _248  and  _249
REMARK   88  A    between atoms: _254  and  _256
REMARK   89  A    between atoms: _256  and  _257
REMARK   90  A    between atoms: _256  and  _259
REMARK   91  A    between atoms: _262  and  _264
REMARK   92  A    between atoms: _264  and  _265
REMARK   93  A    between atoms: _267  and  _269
REMARK   94  A    between atoms: _269  and  _270
REMARK   95  A    between atoms: _273  and  _275
REMARK   96  A    between atoms: _275  and  _276
REMARK   97  A    between atoms: _275  and  _278
REMARK   98  A    between atoms: _281  and  _283
REMARK   99  A    between atoms: _283  and  _284
REMARK  100  A    between atoms: _283  and  _286
REMARK  101  A    between atoms: _286  and  _287
REMARK  102  A    between atoms: _287  and  _288
REMARK  103  A    between atoms: _293  and  _295
REMARK  104  A    between atoms: _295  and  _296
REMARK  105  A    between atoms: _295  and  _298
REMARK  106  A    between atoms: _298  and  _299
REMARK  107  A    between atoms: _302  and  _304
REMARK  108  A    between atoms: _304  and  _305
REMARK  109  A    between atoms: _308  and  _310
REMARK  110  A    between atoms: _310  and  _311
REMARK  111  A    between atoms: _310  and  _313
REMARK  112  A    between atoms: _316  and  _318
REMARK  113  A    between atoms: _318  and  _319
REMARK  114  A    between atoms: _318  and  _321
REMARK  115  A    between atoms: _321  and  _322
REMARK  116  A    between atoms: _325  and  _327
REMARK  117  A    between atoms: _327  and  _328
REMARK  118  A    between atoms: _330  and  _332
REMARK  119  A    between atoms: _332  and  _333
REMARK  120  A    between atoms: _332  and  _335
REMARK  121  A    between atoms: _335  and  _336
REMARK  122  A    between atoms: _338  and  _340
REMARK  123  A    between atoms: _340  and  _341
REMARK  124  A    between atoms: _340  and  _343
REMARK  125  A    between atoms: _343  and  _344
REMARK  126  A    between atoms: _347  and  _349
REMARK  127  A    between atoms: _349  and  _350
REMARK  128  A    between atoms: _349  and  _352
REMARK  129  A    between atoms: _352  and  _353
REMARK  130  A    between atoms: _356  and  _358
REMARK  131  A    between atoms: _358  and  _359
REMARK  132  A    between atoms: _358  and  _361
REMARK  133  A    between atoms: _361  and  _362
REMARK  134  A    between atoms: _366  and  _367
REMARK  135  A    between atoms: _373  and  _374
REMARK  136  A    between atoms: _379  and  _381
REMARK  137  A    between atoms: _381  and  _382
REMARK  138  A    between atoms: _381  and  _384
REMARK  139  A    between atoms: _384  and  _385
REMARK  140  A    between atoms: _388  and  _390
REMARK  141  A    between atoms: _390  and  _391
REMARK  142  A    between atoms: _390  and  _393
REMARK  143  A    between atoms: _393  and  _394
REMARK  144  A    between atoms: _397  and  _399
REMARK  145  A    between atoms: _399  and  _400
REMARK  146  A    between atoms: _399  and  _402
REMARK  147  A    between atoms: _404  and  _406
REMARK  148  A    between atoms: _406  and  _407
REMARK  149  A    between atoms: _406  and  _409
REMARK  150  A    between atoms: _412  and  _414
REMARK  151  A    between atoms: _414  and  _415
REMARK  152  A    between atoms: _414  and  _417
REMARK  153  A    between atoms: _417  and  _418
REMARK  154  A    between atoms: _428  and  _430
REMARK  155  A    between atoms: _430  and  _431
REMARK  156  A    between atoms: _430  and  _433
REMARK  157  A    between atoms: _433  and  _434
REMARK  158  A    between atoms: _439  and  _441
REMARK  159  A    between atoms: _441  and  _442
REMARK  160  A    between atoms: _441  and  _444
REMARK  161  A    between atoms: _444  and  _445
REMARK  162  A    between atoms: _445  and  _446
REMARK  163  A    between atoms: _446  and  _447
REMARK                            x       y       z     vdW  Elec       q    Type
REMARK                         _______ _______ _______ _____ _____    ______ ____
ROOT
ATOM      1  CA  TRP A   2       7.467  -1.256  11.252  0.00  0.00    +0.141 C 
ENDROOT
BRANCH   1   3
ATOM      2  C   HIS A   1       8.907  -0.494   9.437  0.00  0.00    +0.239 C 
ATOM      3  N   TRP A   2       8.047  -0.209  10.412  0.00  0.00    -0.298 N 
ATOM      4  H   TRP A   2       7.781   0.782  10.580  0.00  0.00    +0.150 HD
ATOM      5  O   HIS A   1       9.276  -1.647   9.189  0.00  0.00    -0.274 OA
BRANCH   2   6
ATOM      6  CA  HIS A   1       9.443   0.693   8.613  0.00  0.00    +0.151 C 
BRANCH   6   7
ATOM      7  N   HIS A   1      10.763   0.379   8.058  0.00  0.00    -0.238 NA
ATOM      8  H   HIS A   1      10.898   0.428   7.028  0.00  0.00    +0.142 HD
ENDBRANCH   6   7
BRANCH   6   9
ATOM      9  CB  HIS A   1       8.485   1.009   7.459  0.00  0.00    +0.074 C 
BRANCH   9  10
ATOM     10  CG  HIS A   1       7.210   1.671   7.879  0.00  0.00    +0.082 A 
ATOM     11  ND1 HIS A   1       6.041   0.971   8.092  0.00  0.00    -0.227 NA
ATOM     12  CE1 HIS A   1       5.071   1.817   8.389  0.00  0.00    +0.199 A 
ATOM     13  NE2 HIS A   1       5.569   3.040   8.383  0.00  0.00    -0.221 NA
ATOM     14  CD2 HIS A   1       6.906   2.977   8.070  0.00  0.00    +0.115 A 
ENDBRANCH   9  10
ENDBRANCH   6   9
ENDBRANCH   2   6
ENDBRANCH   1   3
BRANCH   1  15
ATOM     15  C   TRP A   2       6.486  -2.113  10.469  0.00  0.00    +0.227 C 
ATOM     16  O   TRP A   2       5.941  -1.679   9.435  0.00  0.00    -0.286 OA
ENDBRANCH   1  15
BRANCH   1  17
ATOM     17  CB  TRP A   2       6.768  -0.664  12.493  0.00  0.00    +0.056 C 
BRANCH  17  18
ATOM     18  CG  TRP A   2       5.545   0.183  12.196  0.00  0.00    -0.002 A 
ATOM     19  CD2 TRP A   2       4.183  -0.269  12.115  0.00  0.00    +0.013 A 
ATOM     20  CE3 TRP A   2       3.557  -1.511  12.302  0.00  0.00    +0.001 A 
ATOM     21  CZ3 TRP A   2       2.178  -1.597  12.136  0.00  0.00    +0.000 A 
ATOM     22  CH2 TRP A   2       1.416  -0.461  11.786  0.00  0.00    +0.001 A 
ATOM     23  CZ2 TRP A   2       2.001   0.764  11.597  0.00  0.00    +0.017 A 
ATOM     24  CE2 TRP A   2       3.391   0.850  11.766  0.00  0.00    +0.056 A 
ATOM     25  NE1 TRP A   2       4.232   1.929  11.652  0.00  0.00    -0.352 N 
ATOM     26  HE1 TRP A   2       3.941   2.897  11.408  0.00  0.00    +0.166 HD
ATOM     27  CD1 TRP A   2       5.518   1.527  11.912  0.00  0.00    +0.068 A 
ENDBRANCH  17  18
ENDBRANCH   1  17
TORSDOF 8
REMARK  Name = ../refined-set-2016/1g4j/1g4j_pocket.pdb
REMARK  163 active torsions:
REMARK  status: ('A' for Active; 'I' for Inactive)
REMARK    1  A    between atoms: _1  and  _3
REMARK    2  A    between atoms: _3  and  _4
REMARK    3  A    between atoms: _3  and  _6
REMARK    4  A    between atoms: _6  and  _7
REMARK    5  A    between atoms: _12  and  _14
REMARK    6  A    between atoms: _14  and  _15
REMARK    7  A    between atoms: _14  and  _17
REMARK    8  A    between atoms: _17  and  _18
REMARK    9  A    between atoms: _28  and  _30
REMARK   10  A    between atoms: _30  and  _31
REMARK   11  A    between atoms: _30  and  _33
REMARK   12  A    between atoms: _33  and  _34
REMARK   13  A    between atoms: _39  and  _40
REMARK   14  A    between atoms: _42  and  _44
REMARK   15  A    between atoms: _44  and  _45
REMARK   16  A    between atoms: _44  and  _47
REMARK   17  A    between atoms: _47  and  _48
REMARK   18  A    between atoms: _54  and  _56
REMARK   19  A    between atoms: _56  and  _57
REMARK   20  A    between atoms: _56  and  _59
REMARK   21  A    between atoms: _59  and  _60
REMARK   22  A    between atoms: _63  and  _64
REMARK   23  A    between atoms: _69  and  _71
REMARK   24  A    between atoms: _71  and  _72
REMARK   25  A    between atoms: _71  and  _74
REMARK   26  A    between atoms: _74  and  _75
REMARK   27  A    between atoms: _80  and  _82
REMARK   28  A    between atoms: _82  and  _83
REMARK   29  A    between atoms: _82  and  _85
REMARK   30  A    between atoms: _85  and  _86
REMARK   31  A    between atoms: _91  and  _93
REMARK   32  A    between atoms: _93  and  _94
REMARK   33  A    between atoms: _97  and  _99
REMARK   34  A    between atoms: _99  and  _100
REMARK   35  A    between atoms: _99  and  _102
REMARK   36  A    between atoms: _102  and  _103
REMARK   37  A    between atoms: _108  and  _110
REMARK   38  A    between atoms: _110  and  _111
REMARK   39  A    between atoms: _110  and  _113
REMARK   40  A    between atoms: _113  and  _114
REMARK   41  A    between atoms: _117  and  _119
REMARK   42  A    between atoms: _119  and  _120
REMARK   43  A    between atoms: _119  and  _122
REMARK   44  A    between atoms: _122  and  _123
REMARK   45  A    between atoms: _123  and  _124
REMARK   46  A    between atoms: _129  and  _131
REMARK   47  A    between atoms: _131  and  _132
REMARK   48  A    between atoms: _131  and  _134
REMARK   49  A    between atoms: _134  and  _135
REMARK   50  A    between atoms: _141  and  _143
REMARK   51  A    between atoms: _154  and  _157
REMARK   52  A    between atoms: _157  and  _158
REMARK   53  A    between atoms: _166  and  _167
REMARK   54  A    between atoms: _175  and  _177
REMARK   55  A    between atoms: _177  and  _178
REMARK   56  A    between atoms: _177  and  _180
REMARK   57  A    between atoms: _180  and  _181
REMARK   58  A    between atoms: _181  and  _182
REMARK   59  A    between atoms: _185  and  _187
REMARK   60  A    between atoms: _187  and  _188
REMARK   61  A    between atoms: _187  and  _190
REMARK   62  A    between atoms: _190  and  _191
REMARK   63  A    between atoms: _196  and  _198
REMARK   64  A    between atoms: _198  and  _199
REMARK   65  A    between atoms: _198  and  _201
REMARK   66  A    between atoms: _201  and  _202
REMARK   67  A    between atoms: _202  and  _203
REMARK   68  A    between atoms: _206  and  _208
REMARK   69  A    between atoms: _208  and  _209
REMARK   70  A    between atoms: _208  and  _211
REMARK   71  A    between atoms: _211  and  _212
REMARK   72  A    between atoms: _215  and  _217
REMARK   73  A    between atoms: _217  and  _218
REMARK   74  A    between atoms: _217  and  _220
REMARK   75  A    between atoms: _220  and  _221
REMARK   76  A    between atoms: _222  and  ZN_456
REMARK   77  A    between atoms: _226  and  _228
REMARK   78  A    between atoms: _228  and  _229
REMARK   79  A    between atoms: _228  and  _231
REMARK   80  A    between atoms: _231  and  _232
REMARK   81  A    between atoms: _235  and  _237
REMARK   82  A    between atoms: _237  and  _238
REMARK   83  A    between atoms: _237  and  _240
REMARK   84  A    between atoms: _243  and  _245
REMARK   85  A    between atoms: _245  and  _246
REMARK   86  A    between atoms: _245  and  _248
REMARK   87  A    between atoms: _248  and  _249
REMARK   88  A    between atoms: _254  and  _256
REMARK   89  A    between atoms: _256  and  _257
REMARK   90  A    between atoms: _256  and  _259
REMARK   91  A    between atoms: _262  and  _264
REMARK   92  A    between atoms: _264  and  _265
REMARK   93  A    between atoms: _267  and  _269
REMARK   94  A    between atoms: _269  and  _270
REMARK   95  A    between atoms: _273  and  _275
REMARK   96  A    between atoms: _275  and  _276
REMARK   97  A    between atoms: _275  and  _278
REMARK   98  A    between atoms: _281  and  _283
REMARK   99  A    between atoms: _283  and  _284
REMARK  100  A    between atoms: _283  and  _286
REMARK  101  A    between atoms: _286  and  _287
REMARK  102  A    between atoms: _287  and  _288
REMARK  103  A    between atoms: _293  and  _295
REMARK  104  A    between atoms: _295  and  _296
REMARK  105  A    between atoms: _295  and  _298
REMARK  106  A    between atoms: _298  and  _299
REMARK  107  A    between atoms: _302  and  _304
REMARK  108  A    between atoms: _304  and  _305
REMARK  109  A    between atoms: _308  and  _310
REMARK  110  A    between atoms: _310  and  _311
REMARK  111  A    between atoms: _310  and  _313
REMARK  112  A    between atoms: _316  and  _318
REMARK  113  A    between atoms: _318  and  _319
REMARK  114  A    between atoms: _318  and  _321
REMARK  115  A    between atoms: _321  and  _322
REMARK  116  A    between atoms: _325  and  _327
REMARK  117  A    between atoms: _327  and  _328
REMARK  118  A    between atoms: _330  and  _332
REMARK  119  A    between atoms: _332  and  _333
REMARK  120  A    between atoms: _332  and  _335
REMARK  121  A    between atoms: _335  and  _336
REMARK  122  A    between atoms: _338  and  _340
REMARK  123  A    between atoms: _340  and  _341
REMARK  124  A    between atoms: _340  and  _343
REMARK  125  A    between atoms: _343  and  _344
REMARK  126  A    between atoms: _347  and  _349
REMARK  127  A    between atoms: _349  and  _350
REMARK  128  A    between atoms: _349  and  _352
REMARK  129  A    between atoms: _352  and  _353
REMARK  130  A    between atoms: _356  and  _358
REMARK  131  A    between atoms: _358  and  _359
REMARK  132  A    between atoms: _358  and  _361
REMARK  133  A    between atoms: _361  and  _362
REMARK  134  A    between atoms: _366  and  _367
REMARK  135  A    between atoms: _373  and  _374
REMARK  136  A    between atoms: _379  and  _381
REMARK  137  A    between atoms: _381  and  _382
REMARK  138  A    between atoms: _381  and  _384
REMARK  139  A    between atoms: _384  and  _385
REMARK  140  A    between atoms: _388  and  _390
REMARK  141  A    between atoms: _390  and  _391
REMARK  142  A    between atoms: _390  and  _393
REMARK  143  A    between atoms: _393  and  _394
REMARK  144  A    between atoms: _397  and  _399
REMARK  145  A    between atoms: _399  and  _400
REMARK  146  A    between atoms: _399  and  _402
REMARK  147  A    between atoms: _404  and  _406
REMARK  148  A    between atoms: _406  and  _407
REMARK  149  A    between atoms: _406  and  _409
REMARK  150  A    between atoms: _412  and  _414
REMARK  151  A    between atoms: _414  and  _415
REMARK  152  A    between atoms: _414  and  _417
REMARK  153  A    between atoms: _417  and  _418
REMARK  154  A    between atoms: _428  and  _430
REMARK  155  A    between atoms: _430  and  _431
REMARK  156  A    between atoms: _430  and  _433
REMARK  157  A    between atoms: _433  and  _434
REMARK  158  A    between atoms: _439  and  _441
REMARK  159  A    between atoms: _441  and  _442
REMARK  160  A    between atoms: _441  and  _444
REMARK  161  A    between atoms: _444  and  _445
REMARK  162  A    between atoms: _445  and  _446
REMARK  163  A    between atoms: _446  and  _447
REMARK                            x       y       z     vdW  Elec       q    Type
REMARK                         _______ _______ _______ _____ _____    ______ ____
ROOT
ATOM      1  CG  TYR A   1       1.905  -6.951  11.969  0.00  0.00    -0.020 A 
ATOM      2  CD2 TYR A   1       1.568  -6.876  13.323  0.00  0.00    -0.001 A 
ATOM      3  CE2 TYR A   1       0.729  -5.884  13.793  0.00  0.00    +0.036 A 
ATOM      4  CZ  TYR A   1       0.203  -4.949  12.903  0.00  0.00    +0.134 A 
ATOM      5  CE1 TYR A   1       0.523  -5.006  11.547  0.00  0.00    +0.036 A 
ATOM      6  CD1 TYR A   1       1.374  -6.004  11.092  0.00  0.00    -0.001 A 
ENDROOT
BRANCH   4   7
ATOM      7  OH  TYR A   1      -0.641  -3.970  13.383  0.00  0.00    -0.506 OA
ATOM      8  HH  TYR A   1      -0.754  -4.083  14.360  0.00  0.00    +0.292 HD
ENDBRANCH   4   7
BRANCH   1   9
ATOM      9  CB  TYR A   1       2.828  -8.028  11.472  0.00  0.00    +0.051 C 
BRANCH   9  10
ATOM     10  CA  TYR A   1       4.297  -7.676  11.665  0.00  0.00    +0.137 C 
BRANCH  10  11
ATOM     11  N   TYR A   1       4.654  -6.538  10.830  0.00  0.00    -0.239 NA
ATOM     12  H   TYR A   1       4.647  -6.646   9.796  0.00  0.00    +0.142 HD
ENDBRANCH  10  11
BRANCH  10  13
ATOM     13  C   TYR A   1       5.174  -8.887  11.388  0.00  0.00    +0.224 C 
ATOM     14  O   TYR A   1       4.897  -9.984  11.867  0.00  0.00    -0.287 OA
ENDBRANCH  10  13
ENDBRANCH   9  10
ENDBRANCH   1   9
TORSDOF 5
REMARK  Name = ../refined-set-2016/1g4j/1g4j_pocket.pdb
REMARK  163 active torsions:
REMARK  status: ('A' for Active; 'I' for Inactive)
REMARK    1  A    between atoms: _1  and  _3
REMARK    2  A    between atoms: _3  and  _4
REMARK    3  A    between atoms: _3  and  _6
REMARK    4  A    between atoms: _6  and  _7
REMARK    5  A    between atoms: _12  and  _14
REMARK    6  A    between atoms: _14  and  _15
REMARK    7  A    between atoms: _14  and  _17
REMARK    8  A    between atoms: _17  and  _18
REMARK    9  A    between atoms: _28  and  _30
REMARK   10  A    between atoms: _30  and  _31
REMARK   11  A    between atoms: _30  and  _33
REMARK   12  A    between atoms: _33  and  _34
REMARK   13  A    between atoms: _39  and  _40
REMARK   14  A    between atoms: _42  and  _44
REMARK   15  A    between atoms: _44  and  _45
REMARK   16  A    between atoms: _44  and  _47
REMARK   17  A    between atoms: _47  and  _48
REMARK   18  A    between atoms: _54  and  _56
REMARK   19  A    between atoms: _56  and  _57
REMARK   20  A    between atoms: _56  and  _59
REMARK   21  A    between atoms: _59  and  _60
REMARK   22  A    between atoms: _63  and  _64
REMARK   23  A    between atoms: _69  and  _71
REMARK   24  A    between atoms: _71  and  _72
REMARK   25  A    between atoms: _71  and  _74
REMARK   26  A    between atoms: _74  and  _75
REMARK   27  A    between atoms: _80  and  _82
REMARK   28  A    between atoms: _82  and  _83
REMARK   29  A    between atoms: _82  and  _85
REMARK   30  A    between atoms: _85  and  _86
REMARK   31  A    between atoms: _91  and  _93
REMARK   32  A    between atoms: _93  and  _94
REMARK   33  A    between atoms: _97  and  _99
REMARK   34  A    between atoms: _99  and  _100
REMARK   35  A    between atoms: _99  and  _102
REMARK   36  A    between atoms: _102  and  _103
REMARK   37  A    between atoms: _108  and  _110
REMARK   38  A    between atoms: _110  and  _111
REMARK   39  A    between atoms: _110  and  _113
REMARK   40  A    between atoms: _113  and  _114
REMARK   41  A    between atoms: _117  and  _119
REMARK   42  A    between atoms: _119  and  _120
REMARK   43  A    between atoms: _119  and  _122
REMARK   44  A    between atoms: _122  and  _123
REMARK   45  A    between atoms: _123  and  _124
REMARK   46  A    between atoms: _129  and  _131
REMARK   47  A    between atoms: _131  and  _132
REMARK   48  A    between atoms: _131  and  _134
REMARK   49  A    between atoms: _134  and  _135
REMARK   50  A    between atoms: _141  and  _143
REMARK   51  A    between atoms: _154  and  _157
REMARK   52  A    between atoms: _157  and  _158
REMARK   53  A    between atoms: _166  and  _167
REMARK   54  A    between atoms: _175  and  _177
REMARK   55  A    between atoms: _177  and  _178
REMARK   56  A    between atoms: _177  and  _180
REMARK   57  A    between atoms: _180  and  _181
REMARK   58  A    between atoms: _181  and  _182
REMARK   59  A    between atoms: _185  and  _187
REMARK   60  A    between atoms: _187  and  _188
REMARK   61  A    between atoms: _187  and  _190
REMARK   62  A    between atoms: _190  and  _191
REMARK   63  A    between atoms: _196  and  _198
REMARK   64  A    between atoms: _198  and  _199
REMARK   65  A    between atoms: _198  and  _201
REMARK   66  A    between atoms: _201  and  _202
REMARK   67  A    between atoms: _202  and  _203
REMARK   68  A    between atoms: _206  and  _208
REMARK   69  A    between atoms: _208  and  _209
REMARK   70  A    between atoms: _208  and  _211
REMARK   71  A    between atoms: _211  and  _212
REMARK   72  A    between atoms: _215  and  _217
REMARK   73  A    between atoms: _217  and  _218
REMARK   74  A    between atoms: _217  and  _220
REMARK   75  A    between atoms: _220  and  _221
REMARK   76  A    between atoms: _222  and  ZN_456
REMARK   77  A    between atoms: _226  and  _228
REMARK   78  A    between atoms: _228  and  _229
REMARK   79  A    between atoms: _228  and  _231
REMARK   80  A    between atoms: _231  and  _232
REMARK   81  A    between atoms: _235  and  _237
REMARK   82  A    between atoms: _237  and  _238
REMARK   83  A    between atoms: _237  and  _240
REMARK   84  A    between atoms: _243  and  _245
REMARK   85  A    between atoms: _245  and  _246
REMARK   86  A    between atoms: _245  and  _248
REMARK   87  A    between atoms: _248  and  _249
REMARK   88  A    between atoms: _254  and  _256
REMARK   89  A    between atoms: _256  and  _257
REMARK   90  A    between atoms: _256  and  _259
REMARK   91  A    between atoms: _262  and  _264
REMARK   92  A    between atoms: _264  and  _265
REMARK   93  A    between atoms: _267  and  _269
REMARK   94  A    between atoms: _269  and  _270
REMARK   95  A    between atoms: _273  and  _275
REMARK   96  A    between atoms: _275  and  _276
REMARK   97  A    between atoms: _275  and  _278
REMARK   98  A    between atoms: _281  and  _283
REMARK   99  A    between atoms: _283  and  _284
REMARK  100  A    between atoms: _283  and  _286
REMARK  101  A    between atoms: _286  and  _287
REMARK  102  A    between atoms: _287  and  _288
REMARK  103  A    between atoms: _293  and  _295
REMARK  104  A    between atoms: _295  and  _296
REMARK  105  A    between atoms: _295  and  _298
REMARK  106  A    between atoms: _298  and  _299
REMARK  107  A    between atoms: _302  and  _304
REMARK  108  A    between atoms: _304  and  _305
REMARK  109  A    between atoms: _308  and  _310
REMARK  110  A    between atoms: _310  and  _311
REMARK  111  A    between atoms: _310  and  _313
REMARK  112  A    between atoms: _316  and  _318
REMARK  113  A    between atoms: _318  and  _319
REMARK  114  A    between atoms: _318  and  _321
REMARK  115  A    between atoms: _321  and  _322
REMARK  116  A    between atoms: _325  and  _327
REMARK  117  A    between atoms: _327  and  _328
REMARK  118  A    between atoms: _330  and  _332
REMARK  119  A    between atoms: _332  and  _333
REMARK  120  A    between atoms: _332  and  _335
REMARK  121  A    between atoms: _335  and  _336
REMARK  122  A    between atoms: _338  and  _340
REMARK  123  A    between atoms: _340  and  _341
REMARK  124  A    between atoms: _340  and  _343
REMARK  125  A    between atoms: _343  and  _344
REMARK  126  A    between atoms: _347  and  _349
REMARK  127  A    between atoms: _349  and  _350
REMARK  128  A    between atoms: _349  and  _352
REMARK  129  A    between atoms: _352  and  _353
REMARK  130  A    between atoms: _356  and  _358
REMARK  131  A    between atoms: _358  and  _359
REMARK  132  A    between atoms: _358  and  _361
REMARK  133  A    between atoms: _361  and  _362
REMARK  134  A    between atoms: _366  and  _367
REMARK  135  A    between atoms: _373  and  _374
REMARK  136  A    between atoms: _379  and  _381
REMARK  137  A    between atoms: _381  and  _382
REMARK  138  A    between atoms: _381  and  _384
REMARK  139  A    between atoms: _384  and  _385
REMARK  140  A    between atoms: _388  and  _390
REMARK  141  A    between atoms: _390  and  _391
REMARK  142  A    between atoms: _390  and  _393
REMARK  143  A    between atoms: _393  and  _394
REMARK  144  A    between atoms: _397  and  _399
REMARK  145  A    between atoms: _399  and  _400
REMARK  146  A    between atoms: _399  and  _402
REMARK  147  A    between atoms: _404  and  _406
REMARK  148  A    between atoms: _406  and  _407
REMARK  149  A    between atoms: _406  and  _409
REMARK  150  A    between atoms: _412  and  _414
REMARK  151  A    between atoms: _414  and  _415
REMARK  152  A    between atoms: _414  and  _417
REMARK  153  A    between atoms: _417  and  _418
REMARK  154  A    between atoms: _428  and  _430
REMARK  155  A    between atoms: _430  and  _431
REMARK  156  A    between atoms: _430  and  _433
REMARK  157  A    between atoms: _433  and  _434
REMARK  158  A    between atoms: _439  and  _441
REMARK  159  A    between atoms: _441  and  _442
REMARK  160  A    between atoms: _441  and  _444
REMARK  161  A    between atoms: _444  and  _445
REMARK  162  A    between atoms: _445  and  _446
REMARK  163  A    between atoms: _446  and  _447
REMARK                            x       y       z     vdW  Elec       q    Type
REMARK                         _______ _______ _______ _____ _____    ______ ____
ROOT
ATOM      1  CB  PHE A   1       7.403   3.374  19.151  0.00  0.00    +0.051 C 
ENDROOT
BRANCH   1   2
ATOM      2  CG  PHE A   1       7.289   3.762  17.703  0.00  0.00    -0.020 A 
ATOM      3  CD2 PHE A   1       6.976   5.073  17.342  0.00  0.00    -0.004 A 
ATOM      4  CE2 PHE A   1       6.998   5.470  15.996  0.00  0.00    -0.000 A 
ATOM      5  CZ  PHE A   1       7.332   4.546  15.002  0.00  0.00    -0.000 A 
ATOM      6  CE1 PHE A   1       7.634   3.237  15.354  0.00  0.00    -0.000 A 
ATOM      7  CD1 PHE A   1       7.608   2.852  16.702  0.00  0.00    -0.004 A 
ENDBRANCH   1   2
BRANCH   1   8
ATOM      8  CA  PHE A   1       8.740   3.787  19.787  0.00  0.00    +0.137 C 
BRANCH   8   9
ATOM      9  N   PHE A   1       9.864   3.232  19.028  0.00  0.00    -0.239 NA
ATOM     10  H   PHE A   1      10.039   2.208  19.072  0.00  0.00    +0.142 HD
ENDBRANCH   8   9
BRANCH   8  11
ATOM     11  C   PHE A   1       8.837   3.282  21.215  0.00  0.00    +0.224 C 
ATOM     12  O   PHE A   1       8.171   2.329  21.593  0.00  0.00    -0.287 OA
ENDBRANCH   8  11
ENDBRANCH   1   8
TORSDOF 4
REMARK  Name = ../refined-set-2016/1g4j/1g4j_pocket.pdb
REMARK  163 active torsions:
REMARK  status: ('A' for Active; 'I' for Inactive)
REMARK    1  A    between atoms: _1  and  _3
REMARK    2  A    between atoms: _3  and  _4
REMARK    3  A    between atoms: _3  and  _6
REMARK    4  A    between atoms: _6  and  _7
REMARK    5  A    between atoms: _12  and  _14
REMARK    6  A    between atoms: _14  and  _15
REMARK    7  A    between atoms: _14  and  _17
REMARK    8  A    between atoms: _17  and  _18
REMARK    9  A    between atoms: _28  and  _30
REMARK   10  A    between atoms: _30  and  _31
REMARK   11  A    between atoms: _30  and  _33
REMARK   12  A    between atoms: _33  and  _34
REMARK   13  A    between atoms: _39  and  _40
REMARK   14  A    between atoms: _42  and  _44
REMARK   15  A    between atoms: _44  and  _45
REMARK   16  A    between atoms: _44  and  _47
REMARK   17  A    between atoms: _47  and  _48
REMARK   18  A    between atoms: _54  and  _56
REMARK   19  A    between atoms: _56  and  _57
REMARK   20  A    between atoms: _56  and  _59
REMARK   21  A    between atoms: _59  and  _60
REMARK   22  A    between atoms: _63  and  _64
REMARK   23  A    between atoms: _69  and  _71
REMARK   24  A    between atoms: _71  and  _72
REMARK   25  A    between atoms: _71  and  _74
REMARK   26  A    between atoms: _74  and  _75
REMARK   27  A    between atoms: _80  and  _82
REMARK   28  A    between atoms: _82  and  _83
REMARK   29  A    between atoms: _82  and  _85
REMARK   30  A    between atoms: _85  and  _86
REMARK   31  A    between atoms: _91  and  _93
REMARK   32  A    between atoms: _93  and  _94
REMARK   33  A    between atoms: _97  and  _99
REMARK   34  A    between atoms: _99  and  _100
REMARK   35  A    between atoms: _99  and  _102
REMARK   36  A    between atoms: _102  and  _103
REMARK   37  A    between atoms: _108  and  _110
REMARK   38  A    between atoms: _110  and  _111
REMARK   39  A    between atoms: _110  and  _113
REMARK   40  A    between atoms: _113  and  _114
REMARK   41  A    between atoms: _117  and  _119
REMARK   42  A    between atoms: _119  and  _120
REMARK   43  A    between atoms: _119  and  _122
REMARK   44  A    between atoms: _122  and  _123
REMARK   45  A    between atoms: _123  and  _124
REMARK   46  A    between atoms: _129  and  _131
REMARK   47  A    between atoms: _131  and  _132
REMARK   48  A    between atoms: _131  and  _134
REMARK   49  A    between atoms: _134  and  _135
REMARK   50  A    between atoms: _141  and  _143
REMARK   51  A    between atoms: _154  and  _157
REMARK   52  A    between atoms: _157  and  _158
REMARK   53  A    between atoms: _166  and  _167
REMARK   54  A    between atoms: _175  and  _177
REMARK   55  A    between atoms: _177  and  _178
REMARK   56  A    between atoms: _177  and  _180
REMARK   57  A    between atoms: _180  and  _181
REMARK   58  A    between atoms: _181  and  _182
REMARK   59  A    between atoms: _185  and  _187
REMARK   60  A    between atoms: _187  and  _188
REMARK   61  A    between atoms: _187  and  _190
REMARK   62  A    between atoms: _190  and  _191
REMARK   63  A    between atoms: _196  and  _198
REMARK   64  A    between atoms: _198  and  _199
REMARK   65  A    between atoms: _198  and  _201
REMARK   66  A    between atoms: _201  and  _202
REMARK   67  A    between atoms: _202  and  _203
REMARK   68  A    between atoms: _206  and  _208
REMARK   69  A    between atoms: _208  and  _209
REMARK   70  A    between atoms: _208  and  _211
REMARK   71  A    between atoms: _211  and  _212
REMARK   72  A    between atoms: _215  and  _217
REMARK   73  A    between atoms: _217  and  _218
REMARK   74  A    between atoms: _217  and  _220
REMARK   75  A    between atoms: _220  and  _221
REMARK   76  A    between atoms: _222  and  ZN_456
REMARK   77  A    between atoms: _226  and  _228
REMARK   78  A    between atoms: _228  and  _229
REMARK   79  A    between atoms: _228  and  _231
REMARK   80  A    between atoms: _231  and  _232
REMARK   81  A    between atoms: _235  and  _237
REMARK   82  A    between atoms: _237  and  _238
REMARK   83  A    between atoms: _237  and  _240
REMARK   84  A    between atoms: _243  and  _245
REMARK   85  A    between atoms: _245  and  _246
REMARK   86  A    between atoms: _245  and  _248
REMARK   87  A    between atoms: _248  and  _249
REMARK   88  A    between atoms: _254  and  _256
REMARK   89  A    between atoms: _256  and  _257
REMARK   90  A    between atoms: _256  and  _259
REMARK   91  A    between atoms: _262  and  _264
REMARK   92  A    between atoms: _264  and  _265
REMARK   93  A    between atoms: _267  and  _269
REMARK   94  A    between atoms: _269  and  _270
REMARK   95  A    between atoms: _273  and  _275
REMARK   96  A    between atoms: _275  and  _276
REMARK   97  A    between atoms: _275  and  _278
REMARK   98  A    between atoms: _281  and  _283
REMARK   99  A    between atoms: _283  and  _284
REMARK  100  A    between atoms: _283  and  _286
REMARK  101  A    between atoms: _286  and  _287
REMARK  102  A    between atoms: _287  and  _288
REMARK  103  A    between atoms: _293  and  _295
REMARK  104  A    between atoms: _295  and  _296
REMARK  105  A    between atoms: _295  and  _298
REMARK  106  A    between atoms: _298  and  _299
REMARK  107  A    between atoms: _302  and  _304
REMARK  108  A    between atoms: _304  and  _305
REMARK  109  A    between atoms: _308  and  _310
REMARK  110  A    between atoms: _310  and  _311
REMARK  111  A    between atoms: _310  and  _313
REMARK  112  A    between atoms: _316  and  _318
REMARK  113  A    between atoms: _318  and  _319
REMARK  114  A    between atoms: _318  and  _321
REMARK  115  A    between atoms: _321  and  _322
REMARK  116  A    between atoms: _325  and  _327
REMARK  117  A    between atoms: _327  and  _328
REMARK  118  A    between atoms: _330  and  _332
REMARK  119  A    between atoms: _332  and  _333
REMARK  120  A    between atoms: _332  and  _335
REMARK  121  A    between atoms: _335  and  _336
REMARK  122  A    between atoms: _338  and  _340
REMARK  123  A    between atoms: _340  and  _341
REMARK  124  A    between atoms: _340  and  _343
REMARK  125  A    between atoms: _343  and  _344
REMARK  126  A    between atoms: _347  and  _349
REMARK  127  A    between atoms: _349  and  _350
REMARK  128  A    between atoms: _349  and  _352
REMARK  129  A    between atoms: _352  and  _353
REMARK  130  A    between atoms: _356  and  _358
REMARK  131  A    between atoms: _358  and  _359
REMARK  132  A    between atoms: _358  and  _361
REMARK  133  A    between atoms: _361  and  _362
REMARK  134  A    between atoms: _366  and  _367
REMARK  135  A    between atoms: _373  and  _374
REMARK  136  A    between atoms: _379  and  _381
REMARK  137  A    between atoms: _381  and  _382
REMARK  138  A    between atoms: _381  and  _384
REMARK  139  A    between atoms: _384  and  _385
REMARK  140  A    between atoms: _388  and  _390
REMARK  141  A    between atoms: _390  and  _391
REMARK  142  A    between atoms: _390  and  _393
REMARK  143  A    between atoms: _393  and  _394
REMARK  144  A    between atoms: _397  and  _399
REMARK  145  A    between atoms: _399  and  _400
REMARK  146  A    between atoms: _399  and  _402
REMARK  147  A    between atoms: _404  and  _406
REMARK  148  A    between atoms: _406  and  _407
REMARK  149  A    between atoms: _406  and  _409
REMARK  150  A    between atoms: _412  and  _414
REMARK  151  A    between atoms: _414  and  _415
REMARK  152  A    between atoms: _414  and  _417
REMARK  153  A    between atoms: _417  and  _418
REMARK  154  A    between atoms: _428  and  _430
REMARK  155  A    between atoms: _430  and  _431
REMARK  156  A    between atoms: _430  and  _433
REMARK  157  A    between atoms: _433  and  _434
REMARK  158  A    between atoms: _439  and  _441
REMARK  159  A    between atoms: _441  and  _442
REMARK  160  A    between atoms: _441  and  _444
REMARK  161  A    between atoms: _444  and  _445
REMARK  162  A    between atoms: _445  and  _446
REMARK  163  A    between atoms: _446  and  _447
REMARK                            x       y       z     vdW  Elec       q    Type
REMARK                         _______ _______ _______ _____ _____    ______ ____
ROOT
ATOM      1  C   SER A   1      -2.427  -3.011  23.371  0.00  0.00    +0.244 C 
ATOM      2  N   PRO A   2      -3.064  -4.167  23.103  0.00  0.00    -0.273 N 
ATOM      3  CA  PRO A   2      -4.257  -4.680  23.781  0.00  0.00    +0.140 C 
ATOM      4  CB  PRO A   2      -4.795  -5.680  22.771  0.00  0.00    +0.030 C 
ATOM      5  CG  PRO A   2      -3.505  -6.280  22.244  0.00  0.00    +0.024 C 
ATOM      6  CD  PRO A   2      -2.693  -5.049  21.979  0.00  0.00    +0.094 C 
ATOM      7  O   SER A   1      -1.464  -2.624  22.711  0.00  0.00    -0.273 OA
ENDROOT
BRANCH   3   8
ATOM      8  C   PRO A   2      -3.848  -5.400  25.059  0.00  0.00    +0.227 C 
ATOM      9  O   PRO A   2      -2.654  -5.497  25.369  0.00  0.00    -0.286 OA
ENDBRANCH   3   8
BRANCH   1  10
ATOM     10  CA  SER A   1      -2.985  -2.140  24.481  0.00  0.00    +0.175 C 
BRANCH  10  11
ATOM     11  N   SER A   1      -1.923  -1.240  24.888  0.00  0.00    -0.236 NA
ATOM     12  H   SER A   1      -1.467  -0.649  24.164  0.00  0.00    +0.142 HD
ENDBRANCH  10  11
BRANCH  10  13
ATOM     13  CB  SER A   1      -4.169  -1.344  23.931  0.00  0.00    +0.163 C 
BRANCH  13  14
ATOM     14  OG  SER A   1      -4.802  -0.595  24.946  0.00  0.00    -0.380 OA
ATOM     15  H   SER A   1      -5.134  -1.208  25.649  0.00  0.00    +0.211 HD
ENDBRANCH  13  14
ENDBRANCH  10  13
ENDBRANCH   1  10
TORSDOF 5
REMARK  Name = ../refined-set-2016/1g4j/1g4j_pocket.pdb
REMARK  163 active torsions:
REMARK  status: ('A' for Active; 'I' for Inactive)
REMARK    1  A    between atoms: _1  and  _3
REMARK    2  A    between atoms: _3  and  _4
REMARK    3  A    between atoms: _3  and  _6
REMARK    4  A    between atoms: _6  and  _7
REMARK    5  A    between atoms: _12  and  _14
REMARK    6  A    between atoms: _14  and  _15
REMARK    7  A    between atoms: _14  and  _17
REMARK    8  A    between atoms: _17  and  _18
REMARK    9  A    between atoms: _28  and  _30
REMARK   10  A    between atoms: _30  and  _31
REMARK   11  A    between atoms: _30  and  _33
REMARK   12  A    between atoms: _33  and  _34
REMARK   13  A    between atoms: _39  and  _40
REMARK   14  A    between atoms: _42  and  _44
REMARK   15  A    between atoms: _44  and  _45
REMARK   16  A    between atoms: _44  and  _47
REMARK   17  A    between atoms: _47  and  _48
REMARK   18  A    between atoms: _54  and  _56
REMARK   19  A    between atoms: _56  and  _57
REMARK   20  A    between atoms: _56  and  _59
REMARK   21  A    between atoms: _59  and  _60
REMARK   22  A    between atoms: _63  and  _64
REMARK   23  A    between atoms: _69  and  _71
REMARK   24  A    between atoms: _71  and  _72
REMARK   25  A    between atoms: _71  and  _74
REMARK   26  A    between atoms: _74  and  _75
REMARK   27  A    between atoms: _80  and  _82
REMARK   28  A    between atoms: _82  and  _83
REMARK   29  A    between atoms: _82  and  _85
REMARK   30  A    between atoms: _85  and  _86
REMARK   31  A    between atoms: _91  and  _93
REMARK   32  A    between atoms: _93  and  _94
REMARK   33  A    between atoms: _97  and  _99
REMARK   34  A    between atoms: _99  and  _100
REMARK   35  A    between atoms: _99  and  _102
REMARK   36  A    between atoms: _102  and  _103
REMARK   37  A    between atoms: _108  and  _110
REMARK   38  A    between atoms: _110  and  _111
REMARK   39  A    between atoms: _110  and  _113
REMARK   40  A    between atoms: _113  and  _114
REMARK   41  A    between atoms: _117  and  _119
REMARK   42  A    between atoms: _119  and  _120
REMARK   43  A    between atoms: _119  and  _122
REMARK   44  A    between atoms: _122  and  _123
REMARK   45  A    between atoms: _123  and  _124
REMARK   46  A    between atoms: _129  and  _131
REMARK   47  A    between atoms: _131  and  _132
REMARK   48  A    between atoms: _131  and  _134
REMARK   49  A    between atoms: _134  and  _135
REMARK   50  A    between atoms: _141  and  _143
REMARK   51  A    between atoms: _154  and  _157
REMARK   52  A    between atoms: _157  and  _158
REMARK   53  A    between atoms: _166  and  _167
REMARK   54  A    between atoms: _175  and  _177
REMARK   55  A    between atoms: _177  and  _178
REMARK   56  A    between atoms: _177  and  _180
REMARK   57  A    between atoms: _180  and  _181
REMARK   58  A    between atoms: _181  and  _182
REMARK   59  A    between atoms: _185  and  _187
REMARK   60  A    between atoms: _187  and  _188
REMARK   61  A    between atoms: _187  and  _190
REMARK   62  A    between atoms: _190  and  _191
REMARK   63  A    between atoms: _196  and  _198
REMARK   64  A    between atoms: _198  and  _199
REMARK   65  A    between atoms: _198  and  _201
REMARK   66  A    between atoms: _201  and  _202
REMARK   67  A    between atoms: _202  and  _203
REMARK   68  A    between atoms: _206  and  _208
REMARK   69  A    between atoms: _208  and  _209
REMARK   70  A    between atoms: _208  and  _211
REMARK   71  A    between atoms: _211  and  _212
REMARK   72  A    between atoms: _215  and  _217
REMARK   73  A    between atoms: _217  and  _218
REMARK   74  A    between atoms: _217  and  _220
REMARK   75  A    between atoms: _220  and  _221
REMARK   76  A    between atoms: _222  and  ZN_456
REMARK   77  A    between atoms: _226  and  _228
REMARK   78  A    between atoms: _228  and  _229
REMARK   79  A    between atoms: _228  and  _231
REMARK   80  A    between atoms: _231  and  _232
REMARK   81  A    between atoms: _235  and  _237
REMARK   82  A    between atoms: _237  and  _238
REMARK   83  A    between atoms: _237  and  _240
REMARK   84  A    between atoms: _243  and  _245
REMARK   85  A    between atoms: _245  and  _246
REMARK   86  A    between atoms: _245  and  _248
REMARK   87  A    between atoms: _248  and  _249
REMARK   88  A    between atoms: _254  and  _256
REMARK   89  A    between atoms: _256  and  _257
REMARK   90  A    between atoms: _256  and  _259
REMARK   91  A    between atoms: _262  and  _264
REMARK   92  A    between atoms: _264  and  _265
REMARK   93  A    between atoms: _267  and  _269
REMARK   94  A    between atoms: _269  and  _270
REMARK   95  A    between atoms: _273  and  _275
REMARK   96  A    between atoms: _275  and  _276
REMARK   97  A    between atoms: _275  and  _278
REMARK   98  A    between atoms: _281  and  _283
REMARK   99  A    between atoms: _283  and  _284
REMARK  100  A    between atoms: _283  and  _286
REMARK  101  A    between atoms: _286  and  _287
REMARK  102  A    between atoms: _287  and  _288
REMARK  103  A    between atoms: _293  and  _295
REMARK  104  A    between atoms: _295  and  _296
REMARK  105  A    between atoms: _295  and  _298
REMARK  106  A    between atoms: _298  and  _299
REMARK  107  A    between atoms: _302  and  _304
REMARK  108  A    between atoms: _304  and  _305
REMARK  109  A    between atoms: _308  and  _310
REMARK  110  A    between atoms: _310  and  _311
REMARK  111  A    between atoms: _310  and  _313
REMARK  112  A    between atoms: _316  and  _318
REMARK  113  A    between atoms: _318  and  _319
REMARK  114  A    between atoms: _318  and  _321
REMARK  115  A    between atoms: _321  and  _322
REMARK  116  A    between atoms: _325  and  _327
REMARK  117  A    between atoms: _327  and  _328
REMARK  118  A    between atoms: _330  and  _332
REMARK  119  A    between atoms: _332  and  _333
REMARK  120  A    between atoms: _332  and  _335
REMARK  121  A    between atoms: _335  and  _336
REMARK  122  A    between atoms: _338  and  _340
REMARK  123  A    between atoms: _340  and  _341
REMARK  124  A    between atoms: _340  and  _343
REMARK  125  A    between atoms: _343  and  _344
REMARK  126  A    between atoms: _347  and  _349
REMARK  127  A    between atoms: _349  and  _350
REMARK  128  A    between atoms: _349  and  _352
REMARK  129  A    between atoms: _352  and  _353
REMARK  130  A    between atoms: _356  and  _358
REMARK  131  A    between atoms: _358  and  _359
REMARK  132  A    between atoms: _358  and  _361
REMARK  133  A    between atoms: _361  and  _362
REMARK  134  A    between atoms: _366  and  _367
REMARK  135  A    between atoms: _373  and  _374
REMARK  136  A    between atoms: _379  and  _381
REMARK  137  A    between atoms: _381  and  _382
REMARK  138  A    between atoms: _381  and  _384
REMARK  139  A    between atoms: _384  and  _385
REMARK  140  A    between atoms: _388  and  _390
REMARK  141  A    between atoms: _390  and  _391
REMARK  142  A    between atoms: _390  and  _393
REMARK  143  A    between atoms: _393  and  _394
REMARK  144  A    between atoms: _397  and  _399
REMARK  145  A    between atoms: _399  and  _400
REMARK  146  A    between atoms: _399  and  _402
REMARK  147  A    between atoms: _404  and  _406
REMARK  148  A    between atoms: _406  and  _407
REMARK  149  A    between atoms: _406  and  _409
REMARK  150  A    between atoms: _412  and  _414
REMARK  151  A    between atoms: _414  and  _415
REMARK  152  A    between atoms: _414  and  _417
REMARK  153  A    between atoms: _417  and  _418
REMARK  154  A    between atoms: _428  and  _430
REMARK  155  A    between atoms: _430  and  _431
REMARK  156  A    between atoms: _430  and  _433
REMARK  157  A    between atoms: _433  and  _434
REMARK  158  A    between atoms: _439  and  _441
REMARK  159  A    between atoms: _441  and  _442
REMARK  160  A    between atoms: _441  and  _444
REMARK  161  A    between atoms: _444  and  _445
REMARK  162  A    between atoms: _445  and  _446
REMARK  163  A    between atoms: _446  and  _447
REMARK                            x       y       z     vdW  Elec       q    Type
REMARK                         _______ _______ _______ _____ _____    ______ ____
ROOT
ATOM      1  CB  ASN A   1      -2.748   2.189   5.270  0.00  0.00    +0.110 C 
ENDROOT
BRANCH   1   2
ATOM      2  CG  ASN A   1      -3.075   1.389   6.517  0.00  0.00    +0.221 C 
ATOM      3  ND2 ASN A   1      -3.724   2.036   7.467  0.00  0.00    -0.329 N 
ATOM      4 HD21 ASN A   1      -3.973   1.549   8.352  0.00  0.00    +0.145 HD
ATOM      5 HD22 ASN A   1      -3.987   3.033   7.331  0.00  0.00    +0.145 HD
ATOM      6  OD1 ASN A   1      -2.743   0.208   6.633  0.00  0.00    -0.275 OA
ENDBRANCH   1   2
BRANCH   1   7
ATOM      7  CA  ASN A   1      -2.398   1.305   4.066  0.00  0.00    +0.142 C 
BRANCH   7   8
ATOM      8  N   ASN A   1      -3.559   0.519   3.644  0.00  0.00    -0.239 NA
ATOM      9  H   ASN A   1      -4.150   0.047   4.358  0.00  0.00    +0.142 HD
ENDBRANCH   7   8
BRANCH   7  10
ATOM     10  C   ASN A   1      -1.120   0.505   4.353  0.00  0.00    +0.225 C 
ATOM     11  O   ASN A   1      -0.175   1.031   4.945  0.00  0.00    -0.287 OA
ENDBRANCH   7  10
ENDBRANCH   1   7
TORSDOF 4
REMARK  Name = ../refined-set-2016/1g4j/1g4j_pocket.pdb
REMARK  163 active torsions:
REMARK  status: ('A' for Active; 'I' for Inactive)
REMARK    1  A    between atoms: _1  and  _3
REMARK    2  A    between atoms: _3  and  _4
REMARK    3  A    between atoms: _3  and  _6
REMARK    4  A    between atoms: _6  and  _7
REMARK    5  A    between atoms: _12  and  _14
REMARK    6  A    between atoms: _14  and  _15
REMARK    7  A    between atoms: _14  and  _17
REMARK    8  A    between atoms: _17  and  _18
REMARK    9  A    between atoms: _28  and  _30
REMARK   10  A    between atoms: _30  and  _31
REMARK   11  A    between atoms: _30  and  _33
REMARK   12  A    between atoms: _33  and  _34
REMARK   13  A    between atoms: _39  and  _40
REMARK   14  A    between atoms: _42  and  _44
REMARK   15  A    between atoms: _44  and  _45
REMARK   16  A    between atoms: _44  and  _47
REMARK   17  A    between atoms: _47  and  _48
REMARK   18  A    between atoms: _54  and  _56
REMARK   19  A    between atoms: _56  and  _57
REMARK   20  A    between atoms: _56  and  _59
REMARK   21  A    between atoms: _59  and  _60
REMARK   22  A    between atoms: _63  and  _64
REMARK   23  A    between atoms: _69  and  _71
REMARK   24  A    between atoms: _71  and  _72
REMARK   25  A    between atoms: _71  and  _74
REMARK   26  A    between atoms: _74  and  _75
REMARK   27  A    between atoms: _80  and  _82
REMARK   28  A    between atoms: _82  and  _83
REMARK   29  A    between atoms: _82  and  _85
REMARK   30  A    between atoms: _85  and  _86
REMARK   31  A    between atoms: _91  and  _93
REMARK   32  A    between atoms: _93  and  _94
REMARK   33  A    between atoms: _97  and  _99
REMARK   34  A    between atoms: _99  and  _100
REMARK   35  A    between atoms: _99  and  _102
REMARK   36  A    between atoms: _102  and  _103
REMARK   37  A    between atoms: _108  and  _110
REMARK   38  A    between atoms: _110  and  _111
REMARK   39  A    between atoms: _110  and  _113
REMARK   40  A    between atoms: _113  and  _114
REMARK   41  A    between atoms: _117  and  _119
REMARK   42  A    between atoms: _119  and  _120
REMARK   43  A    between atoms: _119  and  _122
REMARK   44  A    between atoms: _122  and  _123
REMARK   45  A    between atoms: _123  and  _124
REMARK   46  A    between atoms: _129  and  _131
REMARK   47  A    between atoms: _131  and  _132
REMARK   48  A    between atoms: _131  and  _134
REMARK   49  A    between atoms: _134  and  _135
REMARK   50  A    between atoms: _141  and  _143
REMARK   51  A    between atoms: _154  and  _157
REMARK   52  A    between atoms: _157  and  _158
REMARK   53  A    between atoms: _166  and  _167
REMARK   54  A    between atoms: _175  and  _177
REMARK   55  A    between atoms: _177  and  _178
REMARK   56  A    between atoms: _177  and  _180
REMARK   57  A    between atoms: _180  and  _181
REMARK   58  A    between atoms: _181  and  _182
REMARK   59  A    between atoms: _185  and  _187
REMARK   60  A    between atoms: _187  and  _188
REMARK   61  A    between atoms: _187  and  _190
REMARK   62  A    between atoms: _190  and  _191
REMARK   63  A    between atoms: _196  and  _198
REMARK   64  A    between atoms: _198  and  _199
REMARK   65  A    between atoms: _198  and  _201
REMARK   66  A    between atoms: _201  and  _202
REMARK   67  A    between atoms: _202  and  _203
REMARK   68  A    between atoms: _206  and  _208
REMARK   69  A    between atoms: _208  and  _209
REMARK   70  A    between atoms: _208  and  _211
REMARK   71  A    between atoms: _211  and  _212
REMARK   72  A    between atoms: _215  and  _217
REMARK   73  A    between atoms: _217  and  _218
REMARK   74  A    between atoms: _217  and  _220
REMARK   75  A    between atoms: _220  and  _221
REMARK   76  A    between atoms: _222  and  ZN_456
REMARK   77  A    between atoms: _226  and  _228
REMARK   78  A    between atoms: _228  and  _229
REMARK   79  A    between atoms: _228  and  _231
REMARK   80  A    between atoms: _231  and  _232
REMARK   81  A    between atoms: _235  and  _237
REMARK   82  A    between atoms: _237  and  _238
REMARK   83  A    between atoms: _237  and  _240
REMARK   84  A    between atoms: _243  and  _245
REMARK   85  A    between atoms: _245  and  _246
REMARK   86  A    between atoms: _245  and  _248
REMARK   87  A    between atoms: _248  and  _249
REMARK   88  A    between atoms: _254  and  _256
REMARK   89  A    between atoms: _256  and  _257
REMARK   90  A    between atoms: _256  and  _259
REMARK   91  A    between atoms: _262  and  _264
REMARK   92  A    between atoms: _264  and  _265
REMARK   93  A    between atoms: _267  and  _269
REMARK   94  A    between atoms: _269  and  _270
REMARK   95  A    between atoms: _273  and  _275
REMARK   96  A    between atoms: _275  and  _276
REMARK   97  A    between atoms: _275  and  _278
REMARK   98  A    between atoms: _281  and  _283
REMARK   99  A    between atoms: _283  and  _284
REMARK  100  A    between atoms: _283  and  _286
REMARK  101  A    between atoms: _286  and  _287
REMARK  102  A    between atoms: _287  and  _288
REMARK  103  A    between atoms: _293  and  _295
REMARK  104  A    between atoms: _295  and  _296
REMARK  105  A    between atoms: _295  and  _298
REMARK  106  A    between atoms: _298  and  _299
REMARK  107  A    between atoms: _302  and  _304
REMARK  108  A    between atoms: _304  and  _305
REMARK  109  A    between atoms: _308  and  _310
REMARK  110  A    between atoms: _310  and  _311
REMARK  111  A    between atoms: _310  and  _313
REMARK  112  A    between atoms: _316  and  _318
REMARK  113  A    between atoms: _318  and  _319
REMARK  114  A    between atoms: _318  and  _321
REMARK  115  A    between atoms: _321  and  _322
REMARK  116  A    between atoms: _325  and  _327
REMARK  117  A    between atoms: _327  and  _328
REMARK  118  A    between atoms: _330  and  _332
REMARK  119  A    between atoms: _332  and  _333
REMARK  120  A    between atoms: _332  and  _335
REMARK  121  A    between atoms: _335  and  _336
REMARK  122  A    between atoms: _338  and  _340
REMARK  123  A    between atoms: _340  and  _341
REMARK  124  A    between atoms: _340  and  _343
REMARK  125  A    between atoms: _343  and  _344
REMARK  126  A    between atoms: _347  and  _349
REMARK  127  A    between atoms: _349  and  _350
REMARK  128  A    between atoms: _349  and  _352
REMARK  129  A    between atoms: _352  and  _353
REMARK  130  A    between atoms: _356  and  _358
REMARK  131  A    between atoms: _358  and  _359
REMARK  132  A    between atoms: _358  and  _361
REMARK  133  A    between atoms: _361  and  _362
REMARK  134  A    between atoms: _366  and  _367
REMARK  135  A    between atoms: _373  and  _374
REMARK  136  A    between atoms: _379  and  _381
REMARK  137  A    between atoms: _381  and  _382
REMARK  138  A    between atoms: _381  and  _384
REMARK  139  A    between atoms: _384  and  _385
REMARK  140  A    between atoms: _388  and  _390
REMARK  141  A    between atoms: _390  and  _391
REMARK  142  A    between atoms: _390  and  _393
REMARK  143  A    between atoms: _393  and  _394
REMARK  144  A    between atoms: _397  and  _399
REMARK  145  A    between atoms: _399  and  _400
REMARK  146  A    between atoms: _399  and  _402
REMARK  147  A    between atoms: _404  and  _406
REMARK  148  A    between atoms: _406  and  _407
REMARK  149  A    between atoms: _406  and  _409
REMARK  150  A    between atoms: _412  and  _414
REMARK  151  A    between atoms: _414  and  _415
REMARK  152  A    between atoms: _414  and  _417
REMARK  153  A    between atoms: _417  and  _418
REMARK  154  A    between atoms: _428  and  _430
REMARK  155  A    between atoms: _430  and  _431
REMARK  156  A    between atoms: _430  and  _433
REMARK  157  A    between atoms: _433  and  _434
REMARK  158  A    between atoms: _439  and  _441
REMARK  159  A    between atoms: _441  and  _442
REMARK  160  A    between atoms: _441  and  _444
REMARK  161  A    between atoms: _444  and  _445
REMARK  162  A    between atoms: _445  and  _446
REMARK  163  A    between atoms: _446  and  _447
REMARK                            x       y       z     vdW  Elec       q    Type
REMARK                         _______ _______ _______ _____ _____    ______ ____
ROOT
ATOM      1  CA  HIS A   1      -0.964  -2.645   7.709  0.00  0.00    +0.151 C 
ENDROOT
BRANCH   1   2
ATOM      2  C   HIS A   1      -2.331  -3.306   7.899  0.00  0.00    +0.239 C 
ATOM      3  O   HIS A   1      -2.453  -4.340   8.568  0.00  0.00    -0.274 OA
ATOM      4  N   ALA A   2      -3.347  -2.720   7.273  0.00  0.00    -0.298 N 
ATOM      5  H   ALA A   2      -3.152  -1.871   6.705  0.00  0.00    +0.150 HD
BRANCH   4   6
ATOM      6  CA  ALA A   2      -4.713  -3.202   7.341  0.00  0.00    +0.137 C 
ATOM      7  CB  ALA A   2      -5.286  -2.895   8.724  0.00  0.00    +0.030 C 
BRANCH   6   8
ATOM      8  C   ALA A   2      -5.458  -2.395   6.287  0.00  0.00    +0.227 C 
ATOM      9  O   ALA A   2      -4.827  -1.760   5.443  0.00  0.00    -0.286 OA
ENDBRANCH   6   8
ENDBRANCH   4   6
ENDBRANCH   1   2
BRANCH   1  10
ATOM     10  N   HIS A   1      -0.865  -1.989   6.399  0.00  0.00    -0.238 NA
ATOM     11  H   HIS A   1      -1.538  -1.232   6.162  0.00  0.00    +0.142 HD
ENDBRANCH   1  10
BRANCH   1  12
ATOM     12  CB  HIS A   1      -0.710  -1.621   8.809  0.00  0.00    +0.074 C 
BRANCH  12  13
ATOM     13  CG  HIS A   1       0.556  -0.849   8.612  0.00  0.00    +0.082 A 
ATOM     14  CD2 HIS A   1       1.854  -1.224   8.724  0.00  0.00    +0.115 A 
ATOM     15  NE2 HIS A   1       2.622  -0.145   8.361  0.00  0.00    -0.221 NA
ATOM     16  CE1 HIS A   1       1.825   0.859   8.038  0.00  0.00    +0.199 A 
ATOM     17  ND1 HIS A   1       0.572   0.461   8.184  0.00  0.00    -0.227 NA
ENDBRANCH  12  13
ENDBRANCH   1  12
TORSDOF 6
REMARK  Name = ../refined-set-2016/1g4j/1g4j_pocket.pdb
REMARK  163 active torsions:
REMARK  status: ('A' for Active; 'I' for Inactive)
REMARK    1  A    between atoms: _1  and  _3
REMARK    2  A    between atoms: _3  and  _4
REMARK    3  A    between atoms: _3  and  _6
REMARK    4  A    between atoms: _6  and  _7
REMARK    5  A    between atoms: _12  and  _14
REMARK    6  A    between atoms: _14  and  _15
REMARK    7  A    between atoms: _14  and  _17
REMARK    8  A    between atoms: _17  and  _18
REMARK    9  A    between atoms: _28  and  _30
REMARK   10  A    between atoms: _30  and  _31
REMARK   11  A    between atoms: _30  and  _33
REMARK   12  A    between atoms: _33  and  _34
REMARK   13  A    between atoms: _39  and  _40
REMARK   14  A    between atoms: _42  and  _44
REMARK   15  A    between atoms: _44  and  _45
REMARK   16  A    between atoms: _44  and  _47
REMARK   17  A    between atoms: _47  and  _48
REMARK   18  A    between atoms: _54  and  _56
REMARK   19  A    between atoms: _56  and  _57
REMARK   20  A    between atoms: _56  and  _59
REMARK   21  A    between atoms: _59  and  _60
REMARK   22  A    between atoms: _63  and  _64
REMARK   23  A    between atoms: _69  and  _71
REMARK   24  A    between atoms: _71  and  _72
REMARK   25  A    between atoms: _71  and  _74
REMARK   26  A    between atoms: _74  and  _75
REMARK   27  A    between atoms: _80  and  _82
REMARK   28  A    between atoms: _82  and  _83
REMARK   29  A    between atoms: _82  and  _85
REMARK   30  A    between atoms: _85  and  _86
REMARK   31  A    between atoms: _91  and  _93
REMARK   32  A    between atoms: _93  and  _94
REMARK   33  A    between atoms: _97  and  _99
REMARK   34  A    between atoms: _99  and  _100
REMARK   35  A    between atoms: _99  and  _102
REMARK   36  A    between atoms: _102  and  _103
REMARK   37  A    between atoms: _108  and  _110
REMARK   38  A    between atoms: _110  and  _111
REMARK   39  A    between atoms: _110  and  _113
REMARK   40  A    between atoms: _113  and  _114
REMARK   41  A    between atoms: _117  and  _119
REMARK   42  A    between atoms: _119  and  _120
REMARK   43  A    between atoms: _119  and  _122
REMARK   44  A    between atoms: _122  and  _123
REMARK   45  A    between atoms: _123  and  _124
REMARK   46  A    between atoms: _129  and  _131
REMARK   47  A    between atoms: _131  and  _132
REMARK   48  A    between atoms: _131  and  _134
REMARK   49  A    between atoms: _134  and  _135
REMARK   50  A    between atoms: _141  and  _143
REMARK   51  A    between atoms: _154  and  _157
REMARK   52  A    between atoms: _157  and  _158
REMARK   53  A    between atoms: _166  and  _167
REMARK   54  A    between atoms: _175  and  _177
REMARK   55  A    between atoms: _177  and  _178
REMARK   56  A    between atoms: _177  and  _180
REMARK   57  A    between atoms: _180  and  _181
REMARK   58  A    between atoms: _181  and  _182
REMARK   59  A    between atoms: _185  and  _187
REMARK   60  A    between atoms: _187  and  _188
REMARK   61  A    between atoms: _187  and  _190
REMARK   62  A    between atoms: _190  and  _191
REMARK   63  A    between atoms: _196  and  _198
REMARK   64  A    between atoms: _198  and  _199
REMARK   65  A    between atoms: _198  and  _201
REMARK   66  A    between atoms: _201  and  _202
REMARK   67  A    between atoms: _202  and  _203
REMARK   68  A    between atoms: _206  and  _208
REMARK   69  A    between atoms: _208  and  _209
REMARK   70  A    between atoms: _208  and  _211
REMARK   71  A    between atoms: _211  and  _212
REMARK   72  A    between atoms: _215  and  _217
REMARK   73  A    between atoms: _217  and  _218
REMARK   74  A    between atoms: _217  and  _220
REMARK   75  A    between atoms: _220  and  _221
REMARK   76  A    between atoms: _222  and  ZN_456
REMARK   77  A    between atoms: _226  and  _228
REMARK   78  A    between atoms: _228  and  _229
REMARK   79  A    between atoms: _228  and  _231
REMARK   80  A    between atoms: _231  and  _232
REMARK   81  A    between atoms: _235  and  _237
REMARK   82  A    between atoms: _237  and  _238
REMARK   83  A    between atoms: _237  and  _240
REMARK   84  A    between atoms: _243  and  _245
REMARK   85  A    between atoms: _245  and  _246
REMARK   86  A    between atoms: _245  and  _248
REMARK   87  A    between atoms: _248  and  _249
REMARK   88  A    between atoms: _254  and  _256
REMARK   89  A    between atoms: _256  and  _257
REMARK   90  A    between atoms: _256  and  _259
REMARK   91  A    between atoms: _262  and  _264
REMARK   92  A    between atoms: _264  and  _265
REMARK   93  A    between atoms: _267  and  _269
REMARK   94  A    between atoms: _269  and  _270
REMARK   95  A    between atoms: _273  and  _275
REMARK   96  A    between atoms: _275  and  _276
REMARK   97  A    between atoms: _275  and  _278
REMARK   98  A    between atoms: _281  and  _283
REMARK   99  A    between atoms: _283  and  _284
REMARK  100  A    between atoms: _283  and  _286
REMARK  101  A    between atoms: _286  and  _287
REMARK  102  A    between atoms: _287  and  _288
REMARK  103  A    between atoms: _293  and  _295
REMARK  104  A    between atoms: _295  and  _296
REMARK  105  A    between atoms: _295  and  _298
REMARK  106  A    between atoms: _298  and  _299
REMARK  107  A    between atoms: _302  and  _304
REMARK  108  A    between atoms: _304  and  _305
REMARK  109  A    between atoms: _308  and  _310
REMARK  110  A    between atoms: _310  and  _311
REMARK  111  A    between atoms: _310  and  _313
REMARK  112  A    between atoms: _316  and  _318
REMARK  113  A    between atoms: _318  and  _319
REMARK  114  A    between atoms: _318  and  _321
REMARK  115  A    between atoms: _321  and  _322
REMARK  116  A    between atoms: _325  and  _327
REMARK  117  A    between atoms: _327  and  _328
REMARK  118  A    between atoms: _330  and  _332
REMARK  119  A    between atoms: _332  and  _333
REMARK  120  A    between atoms: _332  and  _335
REMARK  121  A    between atoms: _335  and  _336
REMARK  122  A    between atoms: _338  and  _340
REMARK  123  A    between atoms: _340  and  _341
REMARK  124  A    between atoms: _340  and  _343
REMARK  125  A    between atoms: _343  and  _344
REMARK  126  A    between atoms: _347  and  _349
REMARK  127  A    between atoms: _349  and  _350
REMARK  128  A    between atoms: _349  and  _352
REMARK  129  A    between atoms: _352  and  _353
REMARK  130  A    between atoms: _356  and  _358
REMARK  131  A    between atoms: _358  and  _359
REMARK  132  A    between atoms: _358  and  _361
REMARK  133  A    between atoms: _361  and  _362
REMARK  134  A    between atoms: _366  and  _367
REMARK  135  A    between atoms: _373  and  _374
REMARK  136  A    between atoms: _379  and  _381
REMARK  137  A    between atoms: _381  and  _382
REMARK  138  A    between atoms: _381  and  _384
REMARK  139  A    between atoms: _384  and  _385
REMARK  140  A    between atoms: _388  and  _390
REMARK  141  A    between atoms: _390  and  _391
REMARK  142  A    between atoms: _390  and  _393
REMARK  143  A    between atoms: _393  and  _394
REMARK  144  A    between atoms: _397  and  _399
REMARK  145  A    between atoms: _399  and  _400
REMARK  146  A    between atoms: _399  and  _402
REMARK  147  A    between atoms: _404  and  _406
REMARK  148  A    between atoms: _406  and  _407
REMARK  149  A    between atoms: _406  and  _409
REMARK  150  A    between atoms: _412  and  _414
REMARK  151  A    between atoms: _414  and  _415
REMARK  152  A    between atoms: _414  and  _417
REMARK  153  A    between atoms: _417  and  _418
REMARK  154  A    between atoms: _428  and  _430
REMARK  155  A    between atoms: _430  and  _431
REMARK  156  A    between atoms: _430  and  _433
REMARK  157  A    between atoms: _433  and  _434
REMARK  158  A    between atoms: _439  and  _441
REMARK  159  A    between atoms: _441  and  _442
REMARK  160  A    between atoms: _441  and  _444
REMARK  161  A    between atoms: _444  and  _445
REMARK  162  A    between atoms: _445  and  _446
REMARK  163  A    between atoms: _446  and  _447
REMARK                            x       y       z     vdW  Elec       q    Type
REMARK                         _______ _______ _______ _____ _____    ______ ____
ROOT
ATOM      1  CB  ASN A   1      -8.535   2.647   7.054  0.00  0.00    +0.110 C 
ENDROOT
BRANCH   1   2
ATOM      2  CG  ASN A   1      -7.391   2.380   8.026  0.00  0.00    +0.221 C 
ATOM      3  ND2 ASN A   1      -7.281   1.166   8.539  0.00  0.00    -0.329 N 
ATOM      4 HD21 ASN A   1      -6.515   0.952   9.210  0.00  0.00    +0.145 HD
ATOM      5 HD22 ASN A   1      -7.960   0.425   8.272  0.00  0.00    +0.145 HD
ATOM      6  OD1 ASN A   1      -6.611   3.291   8.312  0.00  0.00    -0.275 OA
ENDBRANCH   1   2
BRANCH   1   7
ATOM      7  CA  ASN A   1      -9.349   1.396   6.687  0.00  0.00    +0.142 C 
BRANCH   7   8
ATOM      8  N   ASN A   1      -8.530   0.467   5.930  0.00  0.00    -0.239 NA
ATOM      9  H   ASN A   1      -7.957   0.824   5.139  0.00  0.00    +0.142 HD
ENDBRANCH   7   8
BRANCH   7  10
ATOM     10  C   ASN A   1     -10.527   1.874   5.849  0.00  0.00    +0.225 C 
ATOM     11  O   ASN A   1     -10.390   2.092   4.644  0.00  0.00    -0.287 OA
ENDBRANCH   7  10
ENDBRANCH   1   7
TORSDOF 4
REMARK  Name = ../refined-set-2016/1g4j/1g4j_pocket.pdb
REMARK  163 active torsions:
REMARK  status: ('A' for Active; 'I' for Inactive)
REMARK    1  A    between atoms: _1  and  _3
REMARK    2  A    between atoms: _3  and  _4
REMARK    3  A    between atoms: _3  and  _6
REMARK    4  A    between atoms: _6  and  _7
REMARK    5  A    between atoms: _12  and  _14
REMARK    6  A    between atoms: _14  and  _15
REMARK    7  A    between atoms: _14  and  _17
REMARK    8  A    between atoms: _17  and  _18
REMARK    9  A    between atoms: _28  and  _30
REMARK   10  A    between atoms: _30  and  _31
REMARK   11  A    between atoms: _30  and  _33
REMARK   12  A    between atoms: _33  and  _34
REMARK   13  A    between atoms: _39  and  _40
REMARK   14  A    between atoms: _42  and  _44
REMARK   15  A    between atoms: _44  and  _45
REMARK   16  A    between atoms: _44  and  _47
REMARK   17  A    between atoms: _47  and  _48
REMARK   18  A    between atoms: _54  and  _56
REMARK   19  A    between atoms: _56  and  _57
REMARK   20  A    between atoms: _56  and  _59
REMARK   21  A    between atoms: _59  and  _60
REMARK   22  A    between atoms: _63  and  _64
REMARK   23  A    between atoms: _69  and  _71
REMARK   24  A    between atoms: _71  and  _72
REMARK   25  A    between atoms: _71  and  _74
REMARK   26  A    between atoms: _74  and  _75
REMARK   27  A    between atoms: _80  and  _82
REMARK   28  A    between atoms: _82  and  _83
REMARK   29  A    between atoms: _82  and  _85
REMARK   30  A    between atoms: _85  and  _86
REMARK   31  A    between atoms: _91  and  _93
REMARK   32  A    between atoms: _93  and  _94
REMARK   33  A    between atoms: _97  and  _99
REMARK   34  A    between atoms: _99  and  _100
REMARK   35  A    between atoms: _99  and  _102
REMARK   36  A    between atoms: _102  and  _103
REMARK   37  A    between atoms: _108  and  _110
REMARK   38  A    between atoms: _110  and  _111
REMARK   39  A    between atoms: _110  and  _113
REMARK   40  A    between atoms: _113  and  _114
REMARK   41  A    between atoms: _117  and  _119
REMARK   42  A    between atoms: _119  and  _120
REMARK   43  A    between atoms: _119  and  _122
REMARK   44  A    between atoms: _122  and  _123
REMARK   45  A    between atoms: _123  and  _124
REMARK   46  A    between atoms: _129  and  _131
REMARK   47  A    between atoms: _131  and  _132
REMARK   48  A    between atoms: _131  and  _134
REMARK   49  A    between atoms: _134  and  _135
REMARK   50  A    between atoms: _141  and  _143
REMARK   51  A    between atoms: _154  and  _157
REMARK   52  A    between atoms: _157  and  _158
REMARK   53  A    between atoms: _166  and  _167
REMARK   54  A    between atoms: _175  and  _177
REMARK   55  A    between atoms: _177  and  _178
REMARK   56  A    between atoms: _177  and  _180
REMARK   57  A    between atoms: _180  and  _181
REMARK   58  A    between atoms: _181  and  _182
REMARK   59  A    between atoms: _185  and  _187
REMARK   60  A    between atoms: _187  and  _188
REMARK   61  A    between atoms: _187  and  _190
REMARK   62  A    between atoms: _190  and  _191
REMARK   63  A    between atoms: _196  and  _198
REMARK   64  A    between atoms: _198  and  _199
REMARK   65  A    between atoms: _198  and  _201
REMARK   66  A    between atoms: _201  and  _202
REMARK   67  A    between atoms: _202  and  _203
REMARK   68  A    between atoms: _206  and  _208
REMARK   69  A    between atoms: _208  and  _209
REMARK   70  A    between atoms: _208  and  _211
REMARK   71  A    between atoms: _211  and  _212
REMARK   72  A    between atoms: _215  and  _217
REMARK   73  A    between atoms: _217  and  _218
REMARK   74  A    between atoms: _217  and  _220
REMARK   75  A    between atoms: _220  and  _221
REMARK   76  A    between atoms: _222  and  ZN_456
REMARK   77  A    between atoms: _226  and  _228
REMARK   78  A    between atoms: _228  and  _229
REMARK   79  A    between atoms: _228  and  _231
REMARK   80  A    between atoms: _231  and  _232
REMARK   81  A    between atoms: _235  and  _237
REMARK   82  A    between atoms: _237  and  _238
REMARK   83  A    between atoms: _237  and  _240
REMARK   84  A    between atoms: _243  and  _245
REMARK   85  A    between atoms: _245  and  _246
REMARK   86  A    between atoms: _245  and  _248
REMARK   87  A    between atoms: _248  and  _249
REMARK   88  A    between atoms: _254  and  _256
REMARK   89  A    between atoms: _256  and  _257
REMARK   90  A    between atoms: _256  and  _259
REMARK   91  A    between atoms: _262  and  _264
REMARK   92  A    between atoms: _264  and  _265
REMARK   93  A    between atoms: _267  and  _269
REMARK   94  A    between atoms: _269  and  _270
REMARK   95  A    between atoms: _273  and  _275
REMARK   96  A    between atoms: _275  and  _276
REMARK   97  A    between atoms: _275  and  _278
REMARK   98  A    between atoms: _281  and  _283
REMARK   99  A    between atoms: _283  and  _284
REMARK  100  A    between atoms: _283  and  _286
REMARK  101  A    between atoms: _286  and  _287
REMARK  102  A    between atoms: _287  and  _288
REMARK  103  A    between atoms: _293  and  _295
REMARK  104  A    between atoms: _295  and  _296
REMARK  105  A    between atoms: _295  and  _298
REMARK  106  A    between atoms: _298  and  _299
REMARK  107  A    between atoms: _302  and  _304
REMARK  108  A    between atoms: _304  and  _305
REMARK  109  A    between atoms: _308  and  _310
REMARK  110  A    between atoms: _310  and  _311
REMARK  111  A    between atoms: _310  and  _313
REMARK  112  A    between atoms: _316  and  _318
REMARK  113  A    between atoms: _318  and  _319
REMARK  114  A    between atoms: _318  and  _321
REMARK  115  A    between atoms: _321  and  _322
REMARK  116  A    between atoms: _325  and  _327
REMARK  117  A    between atoms: _327  and  _328
REMARK  118  A    between atoms: _330  and  _332
REMARK  119  A    between atoms: _332  and  _333
REMARK  120  A    between atoms: _332  and  _335
REMARK  121  A    between atoms: _335  and  _336
REMARK  122  A    between atoms: _338  and  _340
REMARK  123  A    between atoms: _340  and  _341
REMARK  124  A    between atoms: _340  and  _343
REMARK  125  A    between atoms: _343  and  _344
REMARK  126  A    between atoms: _347  and  _349
REMARK  127  A    between atoms: _349  and  _350
REMARK  128  A    between atoms: _349  and  _352
REMARK  129  A    between atoms: _352  and  _353
REMARK  130  A    between atoms: _356  and  _358
REMARK  131  A    between atoms: _358  and  _359
REMARK  132  A    between atoms: _358  and  _361
REMARK  133  A    between atoms: _361  and  _362
REMARK  134  A    between atoms: _366  and  _367
REMARK  135  A    between atoms: _373  and  _374
REMARK  136  A    between atoms: _379  and  _381
REMARK  137  A    between atoms: _381  and  _382
REMARK  138  A    between atoms: _381  and  _384
REMARK  139  A    between atoms: _384  and  _385
REMARK  140  A    between atoms: _388  and  _390
REMARK  141  A    between atoms: _390  and  _391
REMARK  142  A    between atoms: _390  and  _393
REMARK  143  A    between atoms: _393  and  _394
REMARK  144  A    between atoms: _397  and  _399
REMARK  145  A    between atoms: _399  and  _400
REMARK  146  A    between atoms: _399  and  _402
REMARK  147  A    between atoms: _404  and  _406
REMARK  148  A    between atoms: _406  and  _407
REMARK  149  A    between atoms: _406  and  _409
REMARK  150  A    between atoms: _412  and  _414
REMARK  151  A    between atoms: _414  and  _415
REMARK  152  A    between atoms: _414  and  _417
REMARK  153  A    between atoms: _417  and  _418
REMARK  154  A    between atoms: _428  and  _430
REMARK  155  A    between atoms: _430  and  _431
REMARK  156  A    between atoms: _430  and  _433
REMARK  157  A    between atoms: _433  and  _434
REMARK  158  A    between atoms: _439  and  _441
REMARK  159  A    between atoms: _441  and  _442
REMARK  160  A    between atoms: _441  and  _444
REMARK  161  A    between atoms: _444  and  _445
REMARK  162  A    between atoms: _445  and  _446
REMARK  163  A    between atoms: _446  and  _447
REMARK                            x       y       z     vdW  Elec       q    Type
REMARK                         _______ _______ _______ _____ _____    ______ ____
ROOT
ATOM      1  C   UNK A   4     -10.387  -1.392  10.368  0.00  0.00    +0.000 C 
ATOM      2  C   UNK A   4     -10.481  -2.677  11.181  0.00  0.00    +0.000 C 
ATOM      3  O   UNK A   4     -11.139  -2.714  12.227  0.00  0.00    +0.000 OA
ATOM      4  N   VAL A   5      -9.789  -3.715  10.720  0.00  0.00    +0.000 N 
ATOM      5  CA  VAL A   5      -9.799  -5.017  11.380  0.00  0.00    +0.000 C 
ATOM      6  C   VAL A   5      -8.376  -5.494  11.563  0.00  0.00    +0.000 C 
ATOM      7  N   UNK A   6      -8.233  -6.494  12.418  0.00  0.00    +0.000 N 
ATOM      8  H   UNK A   6      -9.075  -6.820  12.935  0.00  0.00    +0.000 HD
ATOM      9  C   UNK A   6      -6.970  -7.164  12.678  0.00  0.00    +0.000 C 
ATOM     10  C   UNK A   6      -6.495  -6.900  14.099  0.00  0.00    +0.000 C 
ATOM     11  C   UNK A   6      -6.162  -5.464  14.361  0.00  0.00    +0.000 A 
ATOM     12  C   UNK A   6      -6.950  -4.443  14.789  0.00  0.00    +0.000 A 
ATOM     13  N   UNK A   6      -6.206  -3.265  14.854  0.00  0.00    +0.000 N 
ATOM     14 ZN   UNK A   6      -6.953  -1.672  15.301  0.00  0.00    +0.000 Zn
ATOM     15  N   UNK A   4      -7.592  -0.698  13.823  0.00  0.00    +0.000 N 
ATOM     16  C   UNK A   4      -8.100   0.504  13.622  0.00  0.00    +0.000 A 
ATOM     17  N   UNK A   4      -8.596   0.620  12.379  0.00  0.00    +0.000 NA
ATOM     18  C   UNK A   4      -8.411  -0.580  11.734  0.00  0.00    +0.000 A 
ATOM     19  C   UNK A   4      -7.780  -1.381  12.632  0.00  0.00    +0.000 A 
ATOM     20  C   UNK A   6      -4.992  -3.603  14.463  0.00  0.00    +0.000 A 
ATOM     21  N   UNK A   6      -4.917  -4.914  14.159  0.00  0.00    +0.000 NA
ATOM     22  O   VAL A   5      -7.453  -5.010  10.921  0.00  0.00    +0.000 OA
ATOM     23  H   VAL A   5      -9.220  -3.595   9.858  0.00  0.00    +0.000 HD
ATOM     24  C   UNK A   4      -8.933  -0.885  10.368  0.00  0.00    +0.000 C 
ENDROOT
BRANCH  14  25
ATOM     25  N   UNK A   6      -8.287  -2.211  16.540  0.00  0.00    +0.000 N 
ATOM     26  C   UNK A   6      -7.978  -3.137  17.426  0.00  0.00    +0.000 A 
ATOM     27  N   UNK A   6      -9.058  -3.551  18.109  0.00  0.00    +0.000 NA
ATOM     28  C   UNK A   6     -10.131  -2.847  17.633  0.00  0.00    +0.000 A 
ATOM     29  C   UNK A   6      -9.647  -2.023  16.668  0.00  0.00    +0.000 A 
BRANCH  29  30
ATOM     30  C   UNK A   6     -10.385  -1.021  15.840  0.00  0.00    +0.000 C 
BRANCH  30  31
ATOM     31  C   UNK A   6     -11.885  -1.312  15.706  0.00  0.00    +0.000 C 
BRANCH  31  32
ATOM     32  C   UNK A   6     -12.556  -0.123  15.019  0.00  0.00    +0.000 C 
ATOM     33  N   UNK A   4     -13.545   0.458  15.697  0.00  0.00    +0.000 N 
ATOM     34  H   UNK A   4     -13.829   0.045  16.608  0.00  0.00    +0.000 HD
ATOM     35  O   UNK A   6     -12.256   0.173  13.850  0.00  0.00    +0.000 OA
BRANCH  33  36
ATOM     36  C   UNK A   4     -14.253   1.650  15.223  0.00  0.00    +0.000 C 
BRANCH  36  37
ATOM     37  C   UNK A   4     -13.597   2.791  16.010  0.00  0.00    +0.000 C 
ATOM     38  O   UNK A   4     -13.747   2.894  17.239  0.00  0.00    +0.000 OA
ATOM     39  N   VAL A   5     -12.816   3.597  15.300  0.00  0.00    +0.000 N 
ATOM     40  H   VAL A   5     -12.768   3.463  14.270  0.00  0.00    +0.000 HD
BRANCH  39  41
ATOM     41  CA  VAL A   5     -12.025   4.659  15.900  0.00  0.00    +0.000 C 
BRANCH  41  42
ATOM     42  C   VAL A   5     -12.747   5.999  15.938  0.00  0.00    +0.000 C 
ATOM     43  N   UNK A   6     -12.805   6.608  17.126  0.00  0.00    +0.000 N 
ATOM     44  H   UNK A   6     -12.352   6.157  17.946  0.00  0.00    +0.000 HD
ATOM     45  O   VAL A   5     -13.237   6.469  14.902  0.00  0.00    +0.000 OA
BRANCH  43  46
ATOM     46  C   UNK A   6     -13.486   7.890  17.309  0.00  0.00    +0.000 C 
BRANCH  46  47
ATOM     47  C   UNK A   6     -12.574   8.862  18.041  0.00  0.00    +0.000 C 
ATOM     48  O   UNK A   6     -11.764   8.448  18.871  0.00  0.00    +0.000 OA
ENDBRANCH  46  47
BRANCH  46  49
ATOM     49  C   UNK A   6     -14.744   7.747  18.174  0.00  0.00    +0.000 C 
BRANCH  49  50
ATOM     50  C   UNK A   6     -15.687   6.667  17.744  0.00  0.00    +0.000 A 
ATOM     51  N   UNK A   6     -15.404   5.327  17.888  0.00  0.00    +0.000 NA
ATOM     52  C   UNK A   6     -16.432   4.612  17.464  0.00  0.00    +0.000 A 
ATOM     53  N   UNK A   6     -17.373   5.443  17.052  0.00  0.00    +0.000 NA
ATOM     54  C   UNK A   6     -16.933   6.734  17.216  0.00  0.00    +0.000 A 
ENDBRANCH  49  50
ENDBRANCH  46  49
ENDBRANCH  43  46
ENDBRANCH  41  42
BRANCH  41  55
ATOM     55  CB  VAL A   5     -10.671   4.798  15.140  0.00  0.00    +0.000 C 
ATOM     56  CG2 VAL A   5      -9.739   5.765  15.863  0.00  0.00    +0.000 C 
ATOM     57  CG1 VAL A   5     -10.019   3.441  14.993  0.00  0.00    +0.000 C 
ENDBRANCH  41  55
ENDBRANCH  39  41
ENDBRANCH  36  37
BRANCH  36  58
ATOM     58  C   UNK A   4     -15.739   1.514  15.517  0.00  0.00    +0.000 C 
BRANCH  58  59
ATOM     59  C   UNK A   4     -16.423   0.454  14.644  0.00  0.00    +0.000 C 
ATOM     60  C   UNK A   4     -17.344  -0.420  15.452  0.00  0.00    +0.000 C 
ATOM     61  C   UNK A   4     -17.202   1.149  13.539  0.00  0.00    +0.000 C 
ENDBRANCH  58  59
ENDBRANCH  36  58
ENDBRANCH  33  36
ENDBRANCH  31  32
BRANCH  31  62
ATOM     62  N   UNK A   6     -12.114  -2.516  14.921  0.00  0.00    +0.000 N 
ATOM     63  C   LEU A   2     -12.756  -3.571  15.409  0.00  0.00    +0.000 C 
ATOM     64  O   LEU A   2     -13.146  -3.644  16.579  0.00  0.00    +0.000 OA
ATOM     65  H   UNK A   6     -11.762  -2.551  13.943  0.00  0.00    +0.000 HD
BRANCH  63  66
ATOM     66  CA  LEU A   2     -12.966  -4.743  14.447  0.00  0.00    +0.000 C 
BRANCH  66  67
ATOM     67  N   LEU A   2     -12.596  -5.976  15.121  0.00  0.00    +0.000 N 
ATOM     68  H   LEU A   2     -13.296  -6.434  15.739  0.00  0.00    +0.000 HD
ATOM     69  C   GLU A   1     -11.406  -6.542  14.982  0.00  0.00    +0.000 C 
ATOM     70  O   GLU A   1     -10.549  -6.132  14.204  0.00  0.00    +0.000 OA
BRANCH  69  71
ATOM     71  CA  GLU A   1     -11.190  -7.811  15.791  0.00  0.00    +0.000 C 
BRANCH  71  72
ATOM     72  N   GLU A   1     -10.669  -8.847  14.917  0.00  0.00    +0.000 NA
ATOM     73  H   GLU A   1      -9.989  -8.587  14.174  0.00  0.00    +0.000 HD
ENDBRANCH  71  72
BRANCH  71  74
ATOM     74  CB  GLU A   1     -10.228  -7.546  16.947  0.00  0.00    +0.000 C 
BRANCH  74  75
ATOM     75  CG  GLU A   1     -10.816  -6.667  18.049  0.00  0.00    +0.000 C 
BRANCH  75  76
ATOM     76  CD  GLU A   1      -9.896  -6.560  19.250  0.00  0.00    +0.000 C 
ATOM     77  OE2 GLU A   1      -9.821  -5.474  19.843  0.00  0.00    +0.000 OA
ATOM     78  OE1 GLU A   1      -9.251  -7.570  19.599  0.00  0.00    +0.000 OA
ENDBRANCH  75  76
ENDBRANCH  74  75
ENDBRANCH  71  74
ENDBRANCH  69  71
ENDBRANCH  66  67
BRANCH  66  79
ATOM     79  CB  LEU A   2     -14.435  -4.815  14.052  0.00  0.00    +0.000 C 
BRANCH  79  80
ATOM     80  CG  LEU A   2     -15.177  -3.542  13.682  0.00  0.00    +0.000 C 
ATOM     81  CD2 LEU A   2     -16.644  -3.896  13.490  0.00  0.00    +0.000 C 
ATOM     82  CD1 LEU A   2     -14.622  -2.952  12.412  0.00  0.00    +0.000 C 
ENDBRANCH  79  80
ENDBRANCH  66  79
ENDBRANCH  63  66
ENDBRANCH  31  62
ENDBRANCH  30  31
ENDBRANCH  29  30
ENDBRANCH  14  25
BRANCH   1  84
ATOM     83  C   UNK A   3     -11.855   0.597  10.294  0.00  0.00    +0.000 C 
ATOM     84  N   UNK A   4     -11.299  -0.416  10.971  0.00  0.00    +0.000 N 
ATOM     85  H   UNK A   4     -11.527  -0.516  11.981  0.00  0.00    +0.000 HD
ATOM     86  O   UNK A   3     -11.573   0.868   9.112  0.00  0.00    +0.000 OA
BRANCH  83  87
ATOM     87  C   UNK A   3     -12.790   1.511  11.101  0.00  0.00    +0.000 C 
BRANCH  87  90
ATOM     88  C   LEU A   2     -12.598   3.925  11.261  0.00  0.00    +0.000 C 
ATOM     89  O   LEU A   2     -12.689   3.908  12.490  0.00  0.00    +0.000 OA
ATOM     90  N   UNK A   3     -12.757   2.841  10.505  0.00  0.00    +0.000 N 
ATOM     91  H   UNK A   3     -12.859   2.944   9.475  0.00  0.00    +0.000 HD
BRANCH  88  92
ATOM     92  CA  LEU A   2     -12.422   5.244  10.517  0.00  0.00    +0.000 C 
BRANCH  92  94
ATOM     93  C   GLU A   1     -12.912   7.621  10.800  0.00  0.00    +0.000 C 
ATOM     94  N   LEU A   2     -12.714   6.417  11.343  0.00  0.00    +0.000 N 
ATOM     95  H   LEU A   2     -12.768   6.310  12.376  0.00  0.00    +0.000 HD
ATOM     96  O   GLU A   1     -12.875   7.818   9.577  0.00  0.00    +0.000 OA
BRANCH  93  97
ATOM     97  CA  GLU A   1     -13.230   8.769  11.768  0.00  0.00    +0.000 C 
BRANCH  97  98
ATOM     98  CB  GLU A   1     -11.935   9.467  12.292  0.00  0.00    +0.000 C 
ATOM     99  CG2 GLU A   1     -11.144   8.548  13.174  0.00  0.00    +0.000 C 
BRANCH  98 100
ATOM    100  CG1 GLU A   1     -11.073   9.934  11.117  0.00  0.00    +0.000 C 
ATOM    101  CD1 GLU A   1      -9.841  10.690  11.528  0.00  0.00    +0.000 C 
ENDBRANCH  98 100
ENDBRANCH  97  98
BRANCH  97 102
ATOM    102  N   GLU A   1     -14.082   8.302  12.858  0.00  0.00    +0.000 NA
ATOM    103  H   GLU A   1     -13.706   7.642  13.569  0.00  0.00    +0.000 HD
ENDBRANCH  97 102
ENDBRANCH  93  97
ENDBRANCH  92  94
BRANCH  92 104
ATOM    104  CB  LEU A   2     -10.974   5.311  10.007  0.00  0.00    +0.000 C 
BRANCH 104 105
ATOM    105  CG  LEU A   2      -9.901   5.405  11.109  0.00  0.00    +0.000 C 
BRANCH 105 106
ATOM    106  CD  LEU A   2      -9.135   4.099  11.340  0.00  0.00    +0.000 C 
ATOM    107  NE2 LEU A   2      -7.836   4.211  11.586  0.00  0.00    +0.000 N 
ATOM    108 HE21 LEU A   2      -7.264   3.360  11.757  0.00  0.00    +0.000 HD
ATOM    109 HE22 LEU A   2      -7.390   5.150  11.608  0.00  0.00    +0.000 HD
ATOM    110  OE1 LEU A   2      -9.706   3.009  11.304  0.00  0.00    +0.000 OA
ENDBRANCH 105 106
ENDBRANCH 104 105
ENDBRANCH  92 104
ENDBRANCH  88  92
ENDBRANCH  87  90
BRANCH  87 111
ATOM    111  C   UNK A   3     -14.219   0.928  11.316  0.00  0.00    +0.000 C 
BRANCH 111 112
ATOM    112  C   UNK A   3     -14.910   0.417  10.071  0.00  0.00    +0.000 A 
ATOM    113  C   UNK A   3     -16.036   1.067   9.589  0.00  0.00    +0.000 A 
ATOM    114  C   UNK A   3     -16.723   0.582   8.488  0.00  0.00    +0.000 A 
ATOM    115  C   UNK A   3     -16.286  -0.568   7.846  0.00  0.00    +0.000 A 
ATOM    116  C   UNK A   3     -15.160  -1.235   8.310  0.00  0.00    +0.000 A 
ATOM    117  C   UNK A   3     -14.478  -0.741   9.419  0.00  0.00    +0.000 A 
ENDBRANCH 111 112
ENDBRANCH  87 111
ENDBRANCH  83  87
ENDBRANCH   1  84
BRANCH   9 118
ATOM    118  C   UNK A   6      -7.432  -8.611  12.543  0.00  0.00    +0.000 C 
ATOM    119  O   UNK A   6      -8.512  -8.954  13.034  0.00  0.00    +0.000 OA
ENDBRANCH   9 118
BRANCH   5 120
ATOM    120  CB  VAL A   5     -10.490  -6.087  10.504  0.00  0.00    +0.000 C 
BRANCH 120 121
ATOM    121  CG  VAL A   5     -11.923  -5.776  10.122  0.00  0.00    +0.000 A 
ATOM    122  CD2 VAL A   5     -12.978  -6.413  10.761  0.00  0.00    +0.000 A 
ATOM    123  CE2 VAL A   5     -14.292  -6.174  10.375  0.00  0.00    +0.000 A 
ATOM    124  CZ  VAL A   5     -14.566  -5.287   9.334  0.00  0.00    +0.000 A 
ATOM    125  CE1 VAL A   5     -13.530  -4.647   8.693  0.00  0.00    +0.000 A 
ATOM    126  CD1 VAL A   5     -12.211  -4.889   9.086  0.00  0.00    +0.000 A 
ENDBRANCH 120 121
ENDBRANCH   5 120
TORSDOF 42
REMARK  Name = ../refined-set-2016/1g4j/1g4j_pocket.pdb
REMARK  163 active torsions:
REMARK  status: ('A' for Active; 'I' for Inactive)
REMARK    1  A    between atoms: _1  and  _3
REMARK    2  A    between atoms: _3  and  _4
REMARK    3  A    between atoms: _3  and  _6
REMARK    4  A    between atoms: _6  and  _7
REMARK    5  A    between atoms: _12  and  _14
REMARK    6  A    between atoms: _14  and  _15
REMARK    7  A    between atoms: _14  and  _17
REMARK    8  A    between atoms: _17  and  _18
REMARK    9  A    between atoms: _28  and  _30
REMARK   10  A    between atoms: _30  and  _31
REMARK   11  A    between atoms: _30  and  _33
REMARK   12  A    between atoms: _33  and  _34
REMARK   13  A    between atoms: _39  and  _40
REMARK   14  A    between atoms: _42  and  _44
REMARK   15  A    between atoms: _44  and  _45
REMARK   16  A    between atoms: _44  and  _47
REMARK   17  A    between atoms: _47  and  _48
REMARK   18  A    between atoms: _54  and  _56
REMARK   19  A    between atoms: _56  and  _57
REMARK   20  A    between atoms: _56  and  _59
REMARK   21  A    between atoms: _59  and  _60
REMARK   22  A    between atoms: _63  and  _64
REMARK   23  A    between atoms: _69  and  _71
REMARK   24  A    between atoms: _71  and  _72
REMARK   25  A    between atoms: _71  and  _74
REMARK   26  A    between atoms: _74  and  _75
REMARK   27  A    between atoms: _80  and  _82
REMARK   28  A    between atoms: _82  and  _83
REMARK   29  A    between atoms: _82  and  _85
REMARK   30  A    between atoms: _85  and  _86
REMARK   31  A    between atoms: _91  and  _93
REMARK   32  A    between atoms: _93  and  _94
REMARK   33  A    between atoms: _97  and  _99
REMARK   34  A    between atoms: _99  and  _100
REMARK   35  A    between atoms: _99  and  _102
REMARK   36  A    between atoms: _102  and  _103
REMARK   37  A    between atoms: _108  and  _110
REMARK   38  A    between atoms: _110  and  _111
REMARK   39  A    between atoms: _110  and  _113
REMARK   40  A    between atoms: _113  and  _114
REMARK   41  A    between atoms: _117  and  _119
REMARK   42  A    between atoms: _119  and  _120
REMARK   43  A    between atoms: _119  and  _122
REMARK   44  A    between atoms: _122  and  _123
REMARK   45  A    between atoms: _123  and  _124
REMARK   46  A    between atoms: _129  and  _131
REMARK   47  A    between atoms: _131  and  _132
REMARK   48  A    between atoms: _131  and  _134
REMARK   49  A    between atoms: _134  and  _135
REMARK   50  A    between atoms: _141  and  _143
REMARK   51  A    between atoms: _154  and  _157
REMARK   52  A    between atoms: _157  and  _158
REMARK   53  A    between atoms: _166  and  _167
REMARK   54  A    between atoms: _175  and  _177
REMARK   55  A    between atoms: _177  and  _178
REMARK   56  A    between atoms: _177  and  _180
REMARK   57  A    between atoms: _180  and  _181
REMARK   58  A    between atoms: _181  and  _182
REMARK   59  A    between atoms: _185  and  _187
REMARK   60  A    between atoms: _187  and  _188
REMARK   61  A    between atoms: _187  and  _190
REMARK   62  A    between atoms: _190  and  _191
REMARK   63  A    between atoms: _196  and  _198
REMARK   64  A    between atoms: _198  and  _199
REMARK   65  A    between atoms: _198  and  _201
REMARK   66  A    between atoms: _201  and  _202
REMARK   67  A    between atoms: _202  and  _203
REMARK   68  A    between atoms: _206  and  _208
REMARK   69  A    between atoms: _208  and  _209
REMARK   70  A    between atoms: _208  and  _211
REMARK   71  A    between atoms: _211  and  _212
REMARK   72  A    between atoms: _215  and  _217
REMARK   73  A    between atoms: _217  and  _218
REMARK   74  A    between atoms: _217  and  _220
REMARK   75  A    between atoms: _220  and  _221
REMARK   76  A    between atoms: _222  and  ZN_456
REMARK   77  A    between atoms: _226  and  _228
REMARK   78  A    between atoms: _228  and  _229
REMARK   79  A    between atoms: _228  and  _231
REMARK   80  A    between atoms: _231  and  _232
REMARK   81  A    between atoms: _235  and  _237
REMARK   82  A    between atoms: _237  and  _238
REMARK   83  A    between atoms: _237  and  _240
REMARK   84  A    between atoms: _243  and  _245
REMARK   85  A    between atoms: _245  and  _246
REMARK   86  A    between atoms: _245  and  _248
REMARK   87  A    between atoms: _248  and  _249
REMARK   88  A    between atoms: _254  and  _256
REMARK   89  A    between atoms: _256  and  _257
REMARK   90  A    between atoms: _256  and  _259
REMARK   91  A    between atoms: _262  and  _264
REMARK   92  A    between atoms: _264  and  _265
REMARK   93  A    between atoms: _267  and  _269
REMARK   94  A    between atoms: _269  and  _270
REMARK   95  A    between atoms: _273  and  _275
REMARK   96  A    between atoms: _275  and  _276
REMARK   97  A    between atoms: _275  and  _278
REMARK   98  A    between atoms: _281  and  _283
REMARK   99  A    between atoms: _283  and  _284
REMARK  100  A    between atoms: _283  and  _286
REMARK  101  A    between atoms: _286  and  _287
REMARK  102  A    between atoms: _287  and  _288
REMARK  103  A    between atoms: _293  and  _295
REMARK  104  A    between atoms: _295  and  _296
REMARK  105  A    between atoms: _295  and  _298
REMARK  106  A    between atoms: _298  and  _299
REMARK  107  A    between atoms: _302  and  _304
REMARK  108  A    between atoms: _304  and  _305
REMARK  109  A    between atoms: _308  and  _310
REMARK  110  A    between atoms: _310  and  _311
REMARK  111  A    between atoms: _310  and  _313
REMARK  112  A    between atoms: _316  and  _318
REMARK  113  A    between atoms: _318  and  _319
REMARK  114  A    between atoms: _318  and  _321
REMARK  115  A    between atoms: _321  and  _322
REMARK  116  A    between atoms: _325  and  _327
REMARK  117  A    between atoms: _327  and  _328
REMARK  118  A    between atoms: _330  and  _332
REMARK  119  A    between atoms: _332  and  _333
REMARK  120  A    between atoms: _332  and  _335
REMARK  121  A    between atoms: _335  and  _336
REMARK  122  A    between atoms: _338  and  _340
REMARK  123  A    between atoms: _340  and  _341
REMARK  124  A    between atoms: _340  and  _343
REMARK  125  A    between atoms: _343  and  _344
REMARK  126  A    between atoms: _347  and  _349
REMARK  127  A    between atoms: _349  and  _350
REMARK  128  A    between atoms: _349  and  _352
REMARK  129  A    between atoms: _352  and  _353
REMARK  130  A    between atoms: _356  and  _358
REMARK  131  A    between atoms: _358  and  _359
REMARK  132  A    between atoms: _358  and  _361
REMARK  133  A    between atoms: _361  and  _362
REMARK  134  A    between atoms: _366  and  _367
REMARK  135  A    between atoms: _373  and  _374
REMARK  136  A    between atoms: _379  and  _381
REMARK  137  A    between atoms: _381  and  _382
REMARK  138  A    between atoms: _381  and  _384
REMARK  139  A    between atoms: _384  and  _385
REMARK  140  A    between atoms: _388  and  _390
REMARK  141  A    between atoms: _390  and  _391
REMARK  142  A    between atoms: _390  and  _393
REMARK  143  A    between atoms: _393  and  _394
REMARK  144  A    between atoms: _397  and  _399
REMARK  145  A    between atoms: _399  and  _400
REMARK  146  A    between atoms: _399  and  _402
REMARK  147  A    between atoms: _404  and  _406
REMARK  148  A    between atoms: _406  and  _407
REMARK  149  A    between atoms: _406  and  _409
REMARK  150  A    between atoms: _412  and  _414
REMARK  151  A    between atoms: _414  and  _415
REMARK  152  A    between atoms: _414  and  _417
REMARK  153  A    between atoms: _417  and  _418
REMARK  154  A    between atoms: _428  and  _430
REMARK  155  A    between atoms: _430  and  _431
REMARK  156  A    between atoms: _430  and  _433
REMARK  157  A    between atoms: _433  and  _434
REMARK  158  A    between atoms: _439  and  _441
REMARK  159  A    between atoms: _441  and  _442
REMARK  160  A    between atoms: _441  and  _444
REMARK  161  A    between atoms: _444  and  _445
REMARK  162  A    between atoms: _445  and  _446
REMARK  163  A    between atoms: _446  and  _447
REMARK                            x       y       z     vdW  Elec       q    Type
REMARK                         _______ _______ _______ _____ _____    ______ ____
ROOT
ATOM      1  C   GLU A   1      -6.065  -8.484  21.121  0.00  0.00    +0.238 C 
ATOM      2  O   GLU A   1      -5.244  -8.961  21.880  0.00  0.00    -0.274 OA
ATOM      3  N   HIS A   2      -7.278  -8.118  21.521  0.00  0.00    -0.298 N 
ATOM      4  H   HIS A   2      -7.923  -7.658  20.847  0.00  0.00    +0.150 HD
ENDROOT
BRANCH   1   5
ATOM      5  CA  GLU A   1      -5.739  -8.251  19.647  0.00  0.00    +0.145 C 
BRANCH   5   6
ATOM      6  N   GLU A   1      -6.809  -8.882  18.885  0.00  0.00    -0.238 NA
ATOM      7  H   GLU A   1      -7.678  -8.341  18.699  0.00  0.00    +0.142 HD
ENDBRANCH   5   6
BRANCH   5   8
ATOM      8  CB  GLU A   1      -5.684  -6.760  19.306  0.00  0.00    +0.038 C 
BRANCH   8   9
ATOM      9  CG  GLU A   1      -5.411  -6.528  17.819  0.00  0.00    +0.116 C 
BRANCH   9  10
ATOM     10  CD  GLU A   1      -4.624  -5.276  17.573  0.00  0.00    +0.365 C 
ATOM     11  OE2 GLU A   1      -5.194  -4.182  17.737  0.00  0.00    -0.246 OA
ATOM     12  OE1 GLU A   1      -3.431  -5.387  17.221  0.00  0.00    -0.246 OA
ENDBRANCH   9  10
ENDBRANCH   8   9
ENDBRANCH   5   8
ENDBRANCH   1   5
BRANCH   3  13
ATOM     13  CA  HIS A   2      -7.717  -8.351  22.887  0.00  0.00    +0.143 C 
BRANCH  13  14
ATOM     14  C   HIS A   2      -8.090  -9.818  22.932  0.00  0.00    +0.227 C 
ATOM     15  O   HIS A   2      -8.376 -10.413  21.889  0.00  0.00    -0.286 OA
ENDBRANCH  13  14
BRANCH  13  16
ATOM     16  CB  HIS A   2      -8.939  -7.495  23.229  0.00  0.00    +0.075 C 
BRANCH  16  17
ATOM     17  CG  HIS A   2      -8.605  -6.057  23.462  0.00  0.00    +0.082 A 
ATOM     18  CD2 HIS A   2      -8.140  -5.417  24.566  0.00  0.00    +0.115 A 
ATOM     19  NE2 HIS A   2      -7.916  -4.111  24.208  0.00  0.00    -0.221 NA
ATOM     20  CE1 HIS A   2      -8.231  -3.951  22.935  0.00  0.00    +0.199 A 
ATOM     21  ND1 HIS A   2      -8.655  -5.112  22.460  0.00  0.00    -0.227 NA
ENDBRANCH  16  17
ENDBRANCH  13  16
ENDBRANCH   3  13
TORSDOF 9
REMARK  Name = ../refined-set-2016/1g4j/1g4j_pocket.pdb
REMARK  163 active torsions:
REMARK  status: ('A' for Active; 'I' for Inactive)
REMARK    1  A    between atoms: _1  and  _3
REMARK    2  A    between atoms: _3  and  _4
REMARK    3  A    between atoms: _3  and  _6
REMARK    4  A    between atoms: _6  and  _7
REMARK    5  A    between atoms: _12  and  _14
REMARK    6  A    between atoms: _14  and  _15
REMARK    7  A    between atoms: _14  and  _17
REMARK    8  A    between atoms: _17  and  _18
REMARK    9  A    between atoms: _28  and  _30
REMARK   10  A    between atoms: _30  and  _31
REMARK   11  A    between atoms: _30  and  _33
REMARK   12  A    between atoms: _33  and  _34
REMARK   13  A    between atoms: _39  and  _40
REMARK   14  A    between atoms: _42  and  _44
REMARK   15  A    between atoms: _44  and  _45
REMARK   16  A    between atoms: _44  and  _47
REMARK   17  A    between atoms: _47  and  _48
REMARK   18  A    between atoms: _54  and  _56
REMARK   19  A    between atoms: _56  and  _57
REMARK   20  A    between atoms: _56  and  _59
REMARK   21  A    between atoms: _59  and  _60
REMARK   22  A    between atoms: _63  and  _64
REMARK   23  A    between atoms: _69  and  _71
REMARK   24  A    between atoms: _71  and  _72
REMARK   25  A    between atoms: _71  and  _74
REMARK   26  A    between atoms: _74  and  _75
REMARK   27  A    between atoms: _80  and  _82
REMARK   28  A    between atoms: _82  and  _83
REMARK   29  A    between atoms: _82  and  _85
REMARK   30  A    between atoms: _85  and  _86
REMARK   31  A    between atoms: _91  and  _93
REMARK   32  A    between atoms: _93  and  _94
REMARK   33  A    between atoms: _97  and  _99
REMARK   34  A    between atoms: _99  and  _100
REMARK   35  A    between atoms: _99  and  _102
REMARK   36  A    between atoms: _102  and  _103
REMARK   37  A    between atoms: _108  and  _110
REMARK   38  A    between atoms: _110  and  _111
REMARK   39  A    between atoms: _110  and  _113
REMARK   40  A    between atoms: _113  and  _114
REMARK   41  A    between atoms: _117  and  _119
REMARK   42  A    between atoms: _119  and  _120
REMARK   43  A    between atoms: _119  and  _122
REMARK   44  A    between atoms: _122  and  _123
REMARK   45  A    between atoms: _123  and  _124
REMARK   46  A    between atoms: _129  and  _131
REMARK   47  A    between atoms: _131  and  _132
REMARK   48  A    between atoms: _131  and  _134
REMARK   49  A    between atoms: _134  and  _135
REMARK   50  A    between atoms: _141  and  _143
REMARK   51  A    between atoms: _154  and  _157
REMARK   52  A    between atoms: _157  and  _158
REMARK   53  A    between atoms: _166  and  _167
REMARK   54  A    between atoms: _175  and  _177
REMARK   55  A    between atoms: _177  and  _178
REMARK   56  A    between atoms: _177  and  _180
REMARK   57  A    between atoms: _180  and  _181
REMARK   58  A    between atoms: _181  and  _182
REMARK   59  A    between atoms: _185  and  _187
REMARK   60  A    between atoms: _187  and  _188
REMARK   61  A    between atoms: _187  and  _190
REMARK   62  A    between atoms: _190  and  _191
REMARK   63  A    between atoms: _196  and  _198
REMARK   64  A    between atoms: _198  and  _199
REMARK   65  A    between atoms: _198  and  _201
REMARK   66  A    between atoms: _201  and  _202
REMARK   67  A    between atoms: _202  and  _203
REMARK   68  A    between atoms: _206  and  _208
REMARK   69  A    between atoms: _208  and  _209
REMARK   70  A    between atoms: _208  and  _211
REMARK   71  A    between atoms: _211  and  _212
REMARK   72  A    between atoms: _215  and  _217
REMARK   73  A    between atoms: _217  and  _218
REMARK   74  A    between atoms: _217  and  _220
REMARK   75  A    between atoms: _220  and  _221
REMARK   76  A    between atoms: _222  and  ZN_456
REMARK   77  A    between atoms: _226  and  _228
REMARK   78  A    between atoms: _228  and  _229
REMARK   79  A    between atoms: _228  and  _231
REMARK   80  A    between atoms: _231  and  _232
REMARK   81  A    between atoms: _235  and  _237
REMARK   82  A    between atoms: _237  and  _238
REMARK   83  A    between atoms: _237  and  _240
REMARK   84  A    between atoms: _243  and  _245
REMARK   85  A    between atoms: _245  and  _246
REMARK   86  A    between atoms: _245  and  _248
REMARK   87  A    between atoms: _248  and  _249
REMARK   88  A    between atoms: _254  and  _256
REMARK   89  A    between atoms: _256  and  _257
REMARK   90  A    between atoms: _256  and  _259
REMARK   91  A    between atoms: _262  and  _264
REMARK   92  A    between atoms: _264  and  _265
REMARK   93  A    between atoms: _267  and  _269
REMARK   94  A    between atoms: _269  and  _270
REMARK   95  A    between atoms: _273  and  _275
REMARK   96  A    between atoms: _275  and  _276
REMARK   97  A    between atoms: _275  and  _278
REMARK   98  A    between atoms: _281  and  _283
REMARK   99  A    between atoms: _283  and  _284
REMARK  100  A    between atoms: _283  and  _286
REMARK  101  A    between atoms: _286  and  _287
REMARK  102  A    between atoms: _287  and  _288
REMARK  103  A    between atoms: _293  and  _295
REMARK  104  A    between atoms: _295  and  _296
REMARK  105  A    between atoms: _295  and  _298
REMARK  106  A    between atoms: _298  and  _299
REMARK  107  A    between atoms: _302  and  _304
REMARK  108  A    between atoms: _304  and  _305
REMARK  109  A    between atoms: _308  and  _310
REMARK  110  A    between atoms: _310  and  _311
REMARK  111  A    between atoms: _310  and  _313
REMARK  112  A    between atoms: _316  and  _318
REMARK  113  A    between atoms: _318  and  _319
REMARK  114  A    between atoms: _318  and  _321
REMARK  115  A    between atoms: _321  and  _322
REMARK  116  A    between atoms: _325  and  _327
REMARK  117  A    between atoms: _327  and  _328
REMARK  118  A    between atoms: _330  and  _332
REMARK  119  A    between atoms: _332  and  _333
REMARK  120  A    between atoms: _332  and  _335
REMARK  121  A    between atoms: _335  and  _336
REMARK  122  A    between atoms: _338  and  _340
REMARK  123  A    between atoms: _340  and  _341
REMARK  124  A    between atoms: _340  and  _343
REMARK  125  A    between atoms: _343  and  _344
REMARK  126  A    between atoms: _347  and  _349
REMARK  127  A    between atoms: _349  and  _350
REMARK  128  A    between atoms: _349  and  _352
REMARK  129  A    between atoms: _352  and  _353
REMARK  130  A    between atoms: _356  and  _358
REMARK  131  A    between atoms: _358  and  _359
REMARK  132  A    between atoms: _358  and  _361
REMARK  133  A    between atoms: _361  and  _362
REMARK  134  A    between atoms: _366  and  _367
REMARK  135  A    between atoms: _373  and  _374
REMARK  136  A    between atoms: _379  and  _381
REMARK  137  A    between atoms: _381  and  _382
REMARK  138  A    between atoms: _381  and  _384
REMARK  139  A    between atoms: _384  and  _385
REMARK  140  A    between atoms: _388  and  _390
REMARK  141  A    between atoms: _390  and  _391
REMARK  142  A    between atoms: _390  and  _393
REMARK  143  A    between atoms: _393  and  _394
REMARK  144  A    between atoms: _397  and  _399
REMARK  145  A    between atoms: _399  and  _400
REMARK  146  A    between atoms: _399  and  _402
REMARK  147  A    between atoms: _404  and  _406
REMARK  148  A    between atoms: _406  and  _407
REMARK  149  A    between atoms: _406  and  _409
REMARK  150  A    between atoms: _412  and  _414
REMARK  151  A    between atoms: _414  and  _415
REMARK  152  A    between atoms: _414  and  _417
REMARK  153  A    between atoms: _417  and  _418
REMARK  154  A    between atoms: _428  and  _430
REMARK  155  A    between atoms: _430  and  _431
REMARK  156  A    between atoms: _430  and  _433
REMARK  157  A    between atoms: _433  and  _434
REMARK  158  A    between atoms: _439  and  _441
REMARK  159  A    between atoms: _441  and  _442
REMARK  160  A    between atoms: _441  and  _444
REMARK  161  A    between atoms: _444  and  _445
REMARK  162  A    between atoms: _445  and  _446
REMARK  163  A    between atoms: _446  and  _447
REMARK                            x       y       z     vdW  Elec       q    Type
REMARK                         _______ _______ _______ _____ _____    ______ ____
ROOT
ATOM      1  C   VAL A   1      -6.229  14.329  15.838  0.00  0.00    +0.238 C 
ATOM      2  O   VAL A   1      -5.809  13.698  16.802  0.00  0.00    -0.274 OA
ATOM      3  N   GLY A   2      -5.478  15.156  15.117  0.00  0.00    -0.297 N 
ATOM      4  H   GLY A   2      -5.896  15.638  14.296  0.00  0.00    +0.150 HD
ENDROOT
BRANCH   1   5
ATOM      5  CA  VAL A   1      -7.661  14.173  15.402  0.00  0.00    +0.145 C 
BRANCH   5   6
ATOM      6  CB  VAL A   1      -7.722  13.054  14.355  0.00  0.00    +0.025 C 
ATOM      7  CG2 VAL A   1      -7.932  11.726  15.056  0.00  0.00    +0.002 C 
ATOM      8  CG1 VAL A   1      -8.808  13.294  13.376  0.00  0.00    +0.002 C 
ENDBRANCH   5   6
BRANCH   5   9
ATOM      9  N   VAL A   1      -8.251  15.427  14.945  0.00  0.00    -0.238 NA
ATOM     10  H   VAL A   1      -8.615  15.493  13.973  0.00  0.00    +0.142 HD
ENDBRANCH   5   9
ENDBRANCH   1   5
BRANCH   3  11
ATOM     11  CA  GLY A   2      -4.084  15.400  15.453  0.00  0.00    +0.163 C 
BRANCH  11  12
ATOM     12  C   GLY A   2      -3.904  15.911  16.878  0.00  0.00    +0.229 C 
ATOM     13  O   GLY A   2      -2.976  15.494  17.566  0.00  0.00    -0.286 OA
ENDBRANCH  11  12
ENDBRANCH   3  11
TORSDOF 5
REMARK  Name = ../refined-set-2016/1g4j/1g4j_pocket.pdb
REMARK  163 active torsions:
REMARK  status: ('A' for Active; 'I' for Inactive)
REMARK    1  A    between atoms: _1  and  _3
REMARK    2  A    between atoms: _3  and  _4
REMARK    3  A    between atoms: _3  and  _6
REMARK    4  A    between atoms: _6  and  _7
REMARK    5  A    between atoms: _12  and  _14
REMARK    6  A    between atoms: _14  and  _15
REMARK    7  A    between atoms: _14  and  _17
REMARK    8  A    between atoms: _17  and  _18
REMARK    9  A    between atoms: _28  and  _30
REMARK   10  A    between atoms: _30  and  _31
REMARK   11  A    between atoms: _30  and  _33
REMARK   12  A    between atoms: _33  and  _34
REMARK   13  A    between atoms: _39  and  _40
REMARK   14  A    between atoms: _42  and  _44
REMARK   15  A    between atoms: _44  and  _45
REMARK   16  A    between atoms: _44  and  _47
REMARK   17  A    between atoms: _47  and  _48
REMARK   18  A    between atoms: _54  and  _56
REMARK   19  A    between atoms: _56  and  _57
REMARK   20  A    between atoms: _56  and  _59
REMARK   21  A    between atoms: _59  and  _60
REMARK   22  A    between atoms: _63  and  _64
REMARK   23  A    between atoms: _69  and  _71
REMARK   24  A    between atoms: _71  and  _72
REMARK   25  A    between atoms: _71  and  _74
REMARK   26  A    between atoms: _74  and  _75
REMARK   27  A    between atoms: _80  and  _82
REMARK   28  A    between atoms: _82  and  _83
REMARK   29  A    between atoms: _82  and  _85
REMARK   30  A    between atoms: _85  and  _86
REMARK   31  A    between atoms: _91  and  _93
REMARK   32  A    between atoms: _93  and  _94
REMARK   33  A    between atoms: _97  and  _99
REMARK   34  A    between atoms: _99  and  _100
REMARK   35  A    between atoms: _99  and  _102
REMARK   36  A    between atoms: _102  and  _103
REMARK   37  A    between atoms: _108  and  _110
REMARK   38  A    between atoms: _110  and  _111
REMARK   39  A    between atoms: _110  and  _113
REMARK   40  A    between atoms: _113  and  _114
REMARK   41  A    between atoms: _117  and  _119
REMARK   42  A    between atoms: _119  and  _120
REMARK   43  A    between atoms: _119  and  _122
REMARK   44  A    between atoms: _122  and  _123
REMARK   45  A    between atoms: _123  and  _124
REMARK   46  A    between atoms: _129  and  _131
REMARK   47  A    between atoms: _131  and  _132
REMARK   48  A    between atoms: _131  and  _134
REMARK   49  A    between atoms: _134  and  _135
REMARK   50  A    between atoms: _141  and  _143
REMARK   51  A    between atoms: _154  and  _157
REMARK   52  A    between atoms: _157  and  _158
REMARK   53  A    between atoms: _166  and  _167
REMARK   54  A    between atoms: _175  and  _177
REMARK   55  A    between atoms: _177  and  _178
REMARK   56  A    between atoms: _177  and  _180
REMARK   57  A    between atoms: _180  and  _181
REMARK   58  A    between atoms: _181  and  _182
REMARK   59  A    between atoms: _185  and  _187
REMARK   60  A    between atoms: _187  and  _188
REMARK   61  A    between atoms: _187  and  _190
REMARK   62  A    between atoms: _190  and  _191
REMARK   63  A    between atoms: _196  and  _198
REMARK   64  A    between atoms: _198  and  _199
REMARK   65  A    between atoms: _198  and  _201
REMARK   66  A    between atoms: _201  and  _202
REMARK   67  A    between atoms: _202  and  _203
REMARK   68  A    between atoms: _206  and  _208
REMARK   69  A    between atoms: _208  and  _209
REMARK   70  A    between atoms: _208  and  _211
REMARK   71  A    between atoms: _211  and  _212
REMARK   72  A    between atoms: _215  and  _217
REMARK   73  A    between atoms: _217  and  _218
REMARK   74  A    between atoms: _217  and  _220
REMARK   75  A    between atoms: _220  and  _221
REMARK   76  A    between atoms: _222  and  ZN_456
REMARK   77  A    between atoms: _226  and  _228
REMARK   78  A    between atoms: _228  and  _229
REMARK   79  A    between atoms: _228  and  _231
REMARK   80  A    between atoms: _231  and  _232
REMARK   81  A    between atoms: _235  and  _237
REMARK   82  A    between atoms: _237  and  _238
REMARK   83  A    between atoms: _237  and  _240
REMARK   84  A    between atoms: _243  and  _245
REMARK   85  A    between atoms: _245  and  _246
REMARK   86  A    between atoms: _245  and  _248
REMARK   87  A    between atoms: _248  and  _249
REMARK   88  A    between atoms: _254  and  _256
REMARK   89  A    between atoms: _256  and  _257
REMARK   90  A    between atoms: _256  and  _259
REMARK   91  A    between atoms: _262  and  _264
REMARK   92  A    between atoms: _264  and  _265
REMARK   93  A    between atoms: _267  and  _269
REMARK   94  A    between atoms: _269  and  _270
REMARK   95  A    between atoms: _273  and  _275
REMARK   96  A    between atoms: _275  and  _276
REMARK   97  A    between atoms: _275  and  _278
REMARK   98  A    between atoms: _281  and  _283
REMARK   99  A    between atoms: _283  and  _284
REMARK  100  A    between atoms: _283  and  _286
REMARK  101  A    between atoms: _286  and  _287
REMARK  102  A    between atoms: _287  and  _288
REMARK  103  A    between atoms: _293  and  _295
REMARK  104  A    between atoms: _295  and  _296
REMARK  105  A    between atoms: _295  and  _298
REMARK  106  A    between atoms: _298  and  _299
REMARK  107  A    between atoms: _302  and  _304
REMARK  108  A    between atoms: _304  and  _305
REMARK  109  A    between atoms: _308  and  _310
REMARK  110  A    between atoms: _310  and  _311
REMARK  111  A    between atoms: _310  and  _313
REMARK  112  A    between atoms: _316  and  _318
REMARK  113  A    between atoms: _318  and  _319
REMARK  114  A    between atoms: _318  and  _321
REMARK  115  A    between atoms: _321  and  _322
REMARK  116  A    between atoms: _325  and  _327
REMARK  117  A    between atoms: _327  and  _328
REMARK  118  A    between atoms: _330  and  _332
REMARK  119  A    between atoms: _332  and  _333
REMARK  120  A    between atoms: _332  and  _335
REMARK  121  A    between atoms: _335  and  _336
REMARK  122  A    between atoms: _338  and  _340
REMARK  123  A    between atoms: _340  and  _341
REMARK  124  A    between atoms: _340  and  _343
REMARK  125  A    between atoms: _343  and  _344
REMARK  126  A    between atoms: _347  and  _349
REMARK  127  A    between atoms: _349  and  _350
REMARK  128  A    between atoms: _349  and  _352
REMARK  129  A    between atoms: _352  and  _353
REMARK  130  A    between atoms: _356  and  _358
REMARK  131  A    between atoms: _358  and  _359
REMARK  132  A    between atoms: _358  and  _361
REMARK  133  A    between atoms: _361  and  _362
REMARK  134  A    between atoms: _366  and  _367
REMARK  135  A    between atoms: _373  and  _374
REMARK  136  A    between atoms: _379  and  _381
REMARK  137  A    between atoms: _381  and  _382
REMARK  138  A    between atoms: _381  and  _384
REMARK  139  A    between atoms: _384  and  _385
REMARK  140  A    between atoms: _388  and  _390
REMARK  141  A    between atoms: _390  and  _391
REMARK  142  A    between atoms: _390  and  _393
REMARK  143  A    between atoms: _393  and  _394
REMARK  144  A    between atoms: _397  and  _399
REMARK  145  A    between atoms: _399  and  _400
REMARK  146  A    between atoms: _399  and  _402
REMARK  147  A    between atoms: _404  and  _406
REMARK  148  A    between atoms: _406  and  _407
REMARK  149  A    between atoms: _406  and  _409
REMARK  150  A    between atoms: _412  and  _414
REMARK  151  A    between atoms: _414  and  _415
REMARK  152  A    between atoms: _414  and  _417
REMARK  153  A    between atoms: _417  and  _418
REMARK  154  A    between atoms: _428  and  _430
REMARK  155  A    between atoms: _430  and  _431
REMARK  156  A    between atoms: _430  and  _433
REMARK  157  A    between atoms: _433  and  _434
REMARK  158  A    between atoms: _439  and  _441
REMARK  159  A    between atoms: _441  and  _442
REMARK  160  A    between atoms: _441  and  _444
REMARK  161  A    between atoms: _444  and  _445
REMARK  162  A    between atoms: _445  and  _446
REMARK  163  A    between atoms: _446  and  _447
REMARK                            x       y       z     vdW  Elec       q    Type
REMARK                         _______ _______ _______ _____ _____    ______ ____
ROOT
ATOM      1  C   VAL A   2      -2.915  12.437  21.087  0.00  0.00    +0.241 C 
ATOM      2  O   VAL A   2      -2.220  11.598  21.658  0.00  0.00    -0.273 OA
ATOM      3  N   GLN A   3      -2.850  13.732  21.370  0.00  0.00    -0.298 N 
ATOM      4  H   GLN A   3      -3.474  14.391  20.863  0.00  0.00    +0.150 HD
ENDROOT
BRANCH   1   5
ATOM      5  CA  VAL A   2      -3.925  12.007  20.030  0.00  0.00    +0.148 C 
BRANCH   5   8
ATOM      6  C   ALA A   1      -5.808  13.438  20.598  0.00  0.00    +0.238 C 
ATOM      7  O   ALA A   1      -5.819  12.994  21.745  0.00  0.00    -0.274 OA
ATOM      8  N   VAL A   2      -4.906  13.047  19.695  0.00  0.00    -0.297 N 
ATOM      9  H   VAL A   2      -4.898  13.481  18.750  0.00  0.00    +0.150 HD
BRANCH   6  10
ATOM     10  CA  ALA A   1      -6.810  14.524  20.199  0.00  0.00    +0.145 C 
ATOM     11  CB  ALA A   1      -8.052  13.906  19.558  0.00  0.00    +0.028 C 
BRANCH  10  12
ATOM     12  N   ALA A   1      -6.236  15.544  19.329  0.00  0.00    -0.238 NA
ATOM     13  H   ALA A   1      -6.655  15.699  18.390  0.00  0.00    +0.142 HD
ENDBRANCH  10  12
ENDBRANCH   6  10
ENDBRANCH   5   8
BRANCH   5  14
ATOM     14  CB  VAL A   2      -3.162  11.440  18.789  0.00  0.00    +0.027 C 
ATOM     15  CG2 VAL A   2      -2.421  12.545  18.037  0.00  0.00    +0.002 C 
ATOM     16  CG1 VAL A   2      -4.114  10.695  17.880  0.00  0.00    +0.002 C 
ENDBRANCH   5  14
ENDBRANCH   1   5
BRANCH   3  17
ATOM     17  CA  GLN A   3      -1.928  14.259  22.372  0.00  0.00    +0.137 C 
BRANCH  17  18
ATOM     18  C   GLN A   3      -2.568  14.331  23.771  0.00  0.00    +0.227 C 
ATOM     19  O   GLN A   3      -1.927  14.753  24.735  0.00  0.00    -0.286 OA
ENDBRANCH  17  18
BRANCH  17  20
ATOM     20  CB  GLN A   3      -1.440  15.653  21.937  0.00  0.00    +0.037 C 
BRANCH  20  21
ATOM     21  CG  GLN A   3      -0.653  15.655  20.628  0.00  0.00    +0.087 C 
BRANCH  21  22
ATOM     22  CD  GLN A   3      -0.381  17.052  20.085  0.00  0.00    +0.219 C 
ATOM     23  NE2 GLN A   3      -0.160  18.015  20.974  0.00  0.00    -0.329 N 
ATOM     24 HE21 GLN A   3      -0.193  17.801  21.991  0.00  0.00    +0.145 HD
ATOM     25 HE22 GLN A   3       0.046  18.982  20.652  0.00  0.00    +0.145 HD
ATOM     26  OE1 GLN A   3      -0.353  17.254  18.873  0.00  0.00    -0.275 OA
ENDBRANCH  21  22
ENDBRANCH  20  21
ENDBRANCH  17  20
ENDBRANCH   3  17
TORSDOF 10
REMARK  Name = ../refined-set-2016/1g4j/1g4j_pocket.pdb
REMARK  163 active torsions:
REMARK  status: ('A' for Active; 'I' for Inactive)
REMARK    1  A    between atoms: _1  and  _3
REMARK    2  A    between atoms: _3  and  _4
REMARK    3  A    between atoms: _3  and  _6
REMARK    4  A    between atoms: _6  and  _7
REMARK    5  A    between atoms: _12  and  _14
REMARK    6  A    between atoms: _14  and  _15
REMARK    7  A    between atoms: _14  and  _17
REMARK    8  A    between atoms: _17  and  _18
REMARK    9  A    between atoms: _28  and  _30
REMARK   10  A    between atoms: _30  and  _31
REMARK   11  A    between atoms: _30  and  _33
REMARK   12  A    between atoms: _33  and  _34
REMARK   13  A    between atoms: _39  and  _40
REMARK   14  A    between atoms: _42  and  _44
REMARK   15  A    between atoms: _44  and  _45
REMARK   16  A    between atoms: _44  and  _47
REMARK   17  A    between atoms: _47  and  _48
REMARK   18  A    between atoms: _54  and  _56
REMARK   19  A    between atoms: _56  and  _57
REMARK   20  A    between atoms: _56  and  _59
REMARK   21  A    between atoms: _59  and  _60
REMARK   22  A    between atoms: _63  and  _64
REMARK   23  A    between atoms: _69  and  _71
REMARK   24  A    between atoms: _71  and  _72
REMARK   25  A    between atoms: _71  and  _74
REMARK   26  A    between atoms: _74  and  _75
REMARK   27  A    between atoms: _80  and  _82
REMARK   28  A    between atoms: _82  and  _83
REMARK   29  A    between atoms: _82  and  _85
REMARK   30  A    between atoms: _85  and  _86
REMARK   31  A    between atoms: _91  and  _93
REMARK   32  A    between atoms: _93  and  _94
REMARK   33  A    between atoms: _97  and  _99
REMARK   34  A    between atoms: _99  and  _100
REMARK   35  A    between atoms: _99  and  _102
REMARK   36  A    between atoms: _102  and  _103
REMARK   37  A    between atoms: _108  and  _110
REMARK   38  A    between atoms: _110  and  _111
REMARK   39  A    between atoms: _110  and  _113
REMARK   40  A    between atoms: _113  and  _114
REMARK   41  A    between atoms: _117  and  _119
REMARK   42  A    between atoms: _119  and  _120
REMARK   43  A    between atoms: _119  and  _122
REMARK   44  A    between atoms: _122  and  _123
REMARK   45  A    between atoms: _123  and  _124
REMARK   46  A    between atoms: _129  and  _131
REMARK   47  A    between atoms: _131  and  _132
REMARK   48  A    between atoms: _131  and  _134
REMARK   49  A    between atoms: _134  and  _135
REMARK   50  A    between atoms: _141  and  _143
REMARK   51  A    between atoms: _154  and  _157
REMARK   52  A    between atoms: _157  and  _158
REMARK   53  A    between atoms: _166  and  _167
REMARK   54  A    between atoms: _175  and  _177
REMARK   55  A    between atoms: _177  and  _178
REMARK   56  A    between atoms: _177  and  _180
REMARK   57  A    between atoms: _180  and  _181
REMARK   58  A    between atoms: _181  and  _182
REMARK   59  A    between atoms: _185  and  _187
REMARK   60  A    between atoms: _187  and  _188
REMARK   61  A    between atoms: _187  and  _190
REMARK   62  A    between atoms: _190  and  _191
REMARK   63  A    between atoms: _196  and  _198
REMARK   64  A    between atoms: _198  and  _199
REMARK   65  A    between atoms: _198  and  _201
REMARK   66  A    between atoms: _201  and  _202
REMARK   67  A    between atoms: _202  and  _203
REMARK   68  A    between atoms: _206  and  _208
REMARK   69  A    between atoms: _208  and  _209
REMARK   70  A    between atoms: _208  and  _211
REMARK   71  A    between atoms: _211  and  _212
REMARK   72  A    between atoms: _215  and  _217
REMARK   73  A    between atoms: _217  and  _218
REMARK   74  A    between atoms: _217  and  _220
REMARK   75  A    between atoms: _220  and  _221
REMARK   76  A    between atoms: _222  and  ZN_456
REMARK   77  A    between atoms: _226  and  _228
REMARK   78  A    between atoms: _228  and  _229
REMARK   79  A    between atoms: _228  and  _231
REMARK   80  A    between atoms: _231  and  _232
REMARK   81  A    between atoms: _235  and  _237
REMARK   82  A    between atoms: _237  and  _238
REMARK   83  A    between atoms: _237  and  _240
REMARK   84  A    between atoms: _243  and  _245
REMARK   85  A    between atoms: _245  and  _246
REMARK   86  A    between atoms: _245  and  _248
REMARK   87  A    between atoms: _248  and  _249
REMARK   88  A    between atoms: _254  and  _256
REMARK   89  A    between atoms: _256  and  _257
REMARK   90  A    between atoms: _256  and  _259
REMARK   91  A    between atoms: _262  and  _264
REMARK   92  A    between atoms: _264  and  _265
REMARK   93  A    between atoms: _267  and  _269
REMARK   94  A    between atoms: _269  and  _270
REMARK   95  A    between atoms: _273  and  _275
REMARK   96  A    between atoms: _275  and  _276
REMARK   97  A    between atoms: _275  and  _278
REMARK   98  A    between atoms: _281  and  _283
REMARK   99  A    between atoms: _283  and  _284
REMARK  100  A    between atoms: _283  and  _286
REMARK  101  A    between atoms: _286  and  _287
REMARK  102  A    between atoms: _287  and  _288
REMARK  103  A    between atoms: _293  and  _295
REMARK  104  A    between atoms: _295  and  _296
REMARK  105  A    between atoms: _295  and  _298
REMARK  106  A    between atoms: _298  and  _299
REMARK  107  A    between atoms: _302  and  _304
REMARK  108  A    between atoms: _304  and  _305
REMARK  109  A    between atoms: _308  and  _310
REMARK  110  A    between atoms: _310  and  _311
REMARK  111  A    between atoms: _310  and  _313
REMARK  112  A    between atoms: _316  and  _318
REMARK  113  A    between atoms: _318  and  _319
REMARK  114  A    between atoms: _318  and  _321
REMARK  115  A    between atoms: _321  and  _322
REMARK  116  A    between atoms: _325  and  _327
REMARK  117  A    between atoms: _327  and  _328
REMARK  118  A    between atoms: _330  and  _332
REMARK  119  A    between atoms: _332  and  _333
REMARK  120  A    between atoms: _332  and  _335
REMARK  121  A    between atoms: _335  and  _336
REMARK  122  A    between atoms: _338  and  _340
REMARK  123  A    between atoms: _340  and  _341
REMARK  124  A    between atoms: _340  and  _343
REMARK  125  A    between atoms: _343  and  _344
REMARK  126  A    between atoms: _347  and  _349
REMARK  127  A    between atoms: _349  and  _350
REMARK  128  A    between atoms: _349  and  _352
REMARK  129  A    between atoms: _352  and  _353
REMARK  130  A    between atoms: _356  and  _358
REMARK  131  A    between atoms: _358  and  _359
REMARK  132  A    between atoms: _358  and  _361
REMARK  133  A    between atoms: _361  and  _362
REMARK  134  A    between atoms: _366  and  _367
REMARK  135  A    between atoms: _373  and  _374
REMARK  136  A    between atoms: _379  and  _381
REMARK  137  A    between atoms: _381  and  _382
REMARK  138  A    between atoms: _381  and  _384
REMARK  139  A    between atoms: _384  and  _385
REMARK  140  A    between atoms: _388  and  _390
REMARK  141  A    between atoms: _390  and  _391
REMARK  142  A    between atoms: _390  and  _393
REMARK  143  A    between atoms: _393  and  _394
REMARK  144  A    between atoms: _397  and  _399
REMARK  145  A    between atoms: _399  and  _400
REMARK  146  A    between atoms: _399  and  _402
REMARK  147  A    between atoms: _404  and  _406
REMARK  148  A    between atoms: _406  and  _407
REMARK  149  A    between atoms: _406  and  _409
REMARK  150  A    between atoms: _412  and  _414
REMARK  151  A    between atoms: _414  and  _415
REMARK  152  A    between atoms: _414  and  _417
REMARK  153  A    between atoms: _417  and  _418
REMARK  154  A    between atoms: _428  and  _430
REMARK  155  A    between atoms: _430  and  _431
REMARK  156  A    between atoms: _430  and  _433
REMARK  157  A    between atoms: _433  and  _434
REMARK  158  A    between atoms: _439  and  _441
REMARK  159  A    between atoms: _441  and  _442
REMARK  160  A    between atoms: _441  and  _444
REMARK  161  A    between atoms: _444  and  _445
REMARK  162  A    between atoms: _445  and  _446
REMARK  163  A    between atoms: _446  and  _447
REMARK                            x       y       z     vdW  Elec       q    Type
REMARK                         _______ _______ _______ _____ _____    ______ ____
ROOT
ATOM      1  CA  VAL A   3     -12.068   2.766  20.126  0.00  0.00    +0.149 C 
ENDROOT
BRANCH   1   3
ATOM      2  C   ALA A   2     -12.434   5.033  20.881  0.00  0.00    +0.241 C 
ATOM      3  N   VAL A   3     -11.990   3.812  21.149  0.00  0.00    -0.297 N 
ATOM      4  H   VAL A   3     -11.587   3.598  22.084  0.00  0.00    +0.150 HD
ATOM      5  O   ALA A   2     -12.792   5.369  19.740  0.00  0.00    -0.273 OA
BRANCH   2   6
ATOM      6  CA  ALA A   2     -12.347   6.055  22.007  0.00  0.00    +0.149 C 
ATOM      7  CB  ALA A   2     -13.723   6.588  22.337  0.00  0.00    +0.031 C 
BRANCH   6  10
ATOM      8  C   LEU A   1     -10.514   7.681  22.167  0.00  0.00    +0.238 C 
ATOM      9  O   LEU A   1     -10.277   7.427  23.343  0.00  0.00    -0.274 OA
ATOM     10  N   ALA A   2     -11.486   7.103  21.468  0.00  0.00    -0.297 N 
ATOM     11  H   ALA A   2     -11.641   7.413  20.488  0.00  0.00    +0.150 HD
BRANCH   8  12
ATOM     12  CA  LEU A   1      -9.678   8.685  21.401  0.00  0.00    +0.145 C 
BRANCH  12  13
ATOM     13  N   LEU A   1      -8.996   9.649  22.255  0.00  0.00    -0.238 NA
ATOM     14  H   LEU A   1      -8.350   9.320  23.001  0.00  0.00    +0.142 HD
ENDBRANCH  12  13
BRANCH  12  15
ATOM     15  CB  LEU A   1      -8.667   7.901  20.563  0.00  0.00    +0.026 C 
BRANCH  15  16
ATOM     16  CG  LEU A   1      -7.743   8.620  19.595  0.00  0.00    +0.002 C 
ATOM     17  CD2 LEU A   1      -7.002   7.585  18.768  0.00  0.00    +0.000 C 
ATOM     18  CD1 LEU A   1      -8.523   9.518  18.687  0.00  0.00    +0.000 C 
ENDBRANCH  15  16
ENDBRANCH  12  15
ENDBRANCH   8  12
ENDBRANCH   6  10
ENDBRANCH   2   6
ENDBRANCH   1   3
BRANCH   1  19
ATOM     19  C   VAL A   3     -13.036   1.697  20.608  0.00  0.00    +0.241 C 
ATOM     20  O   VAL A   3     -12.917   1.208  21.733  0.00  0.00    -0.273 OA
ATOM     21  N   LEU A   4     -14.027   1.412  19.772  0.00  0.00    -0.297 N 
ATOM     22  H   LEU A   4     -14.075   1.930  18.872  0.00  0.00    +0.150 HD
BRANCH  21  23
ATOM     23  CA  LEU A   4     -15.052   0.411  20.048  0.00  0.00    +0.149 C 
BRANCH  23  24
ATOM     24  C   LEU A   4     -14.514  -0.883  19.422  0.00  0.00    +0.241 C 
ATOM     25  N   GLY A   5     -14.240  -1.883  20.252  0.00  0.00    -0.296 N 
ATOM     26  H   GLY A   5     -14.423  -1.761  21.269  0.00  0.00    +0.150 HD
ATOM     27  O   LEU A   4     -14.294  -0.940  18.216  0.00  0.00    -0.273 OA
BRANCH  25  28
ATOM     28  CA  GLY A   5     -13.692  -3.142  19.778  0.00  0.00    +0.163 C 
BRANCH  28  29
ATOM     29  C   GLY A   5     -14.754  -4.219  19.750  0.00  0.00    +0.229 C 
ATOM     30  O   GLY A   5     -15.452  -4.419  20.739  0.00  0.00    -0.286 OA
ENDBRANCH  28  29
ENDBRANCH  25  28
ENDBRANCH  23  24
BRANCH  23  31
ATOM     31  CB  LEU A   4     -16.364   0.845  19.378  0.00  0.00    +0.029 C 
BRANCH  31  32
ATOM     32  CG  LEU A   4     -17.687   0.224  19.819  0.00  0.00    +0.002 C 
ATOM     33  CD2 LEU A   4     -17.908   0.524  21.278  0.00  0.00    +0.000 C 
ATOM     34  CD1 LEU A   4     -18.828   0.805  18.995  0.00  0.00    +0.000 C 
ENDBRANCH  31  32
ENDBRANCH  23  31
ENDBRANCH  21  23
ENDBRANCH   1  19
BRANCH   1  35
ATOM     35  CB  VAL A   3     -10.690   2.106  19.804  0.00  0.00    +0.027 C 
ATOM     36  CG2 VAL A   3      -9.680   3.165  19.387  0.00  0.00    +0.002 C 
ATOM     37  CG1 VAL A   3     -10.866   1.069  18.682  0.00  0.00    +0.002 C 
ENDBRANCH   1  35
TORSDOF 15
REMARK  Name = ../refined-set-2016/1g4j/1g4j_pocket.pdb
REMARK  163 active torsions:
REMARK  status: ('A' for Active; 'I' for Inactive)
REMARK    1  A    between atoms: _1  and  _3
REMARK    2  A    between atoms: _3  and  _4
REMARK    3  A    between atoms: _3  and  _6
REMARK    4  A    between atoms: _6  and  _7
REMARK    5  A    between atoms: _12  and  _14
REMARK    6  A    between atoms: _14  and  _15
REMARK    7  A    between atoms: _14  and  _17
REMARK    8  A    between atoms: _17  and  _18
REMARK    9  A    between atoms: _28  and  _30
REMARK   10  A    between atoms: _30  and  _31
REMARK   11  A    between atoms: _30  and  _33
REMARK   12  A    between atoms: _33  and  _34
REMARK   13  A    between atoms: _39  and  _40
REMARK   14  A    between atoms: _42  and  _44
REMARK   15  A    between atoms: _44  and  _45
REMARK   16  A    between atoms: _44  and  _47
REMARK   17  A    between atoms: _47  and  _48
REMARK   18  A    between atoms: _54  and  _56
REMARK   19  A    between atoms: _56  and  _57
REMARK   20  A    between atoms: _56  and  _59
REMARK   21  A    between atoms: _59  and  _60
REMARK   22  A    between atoms: _63  and  _64
REMARK   23  A    between atoms: _69  and  _71
REMARK   24  A    between atoms: _71  and  _72
REMARK   25  A    between atoms: _71  and  _74
REMARK   26  A    between atoms: _74  and  _75
REMARK   27  A    between atoms: _80  and  _82
REMARK   28  A    between atoms: _82  and  _83
REMARK   29  A    between atoms: _82  and  _85
REMARK   30  A    between atoms: _85  and  _86
REMARK   31  A    between atoms: _91  and  _93
REMARK   32  A    between atoms: _93  and  _94
REMARK   33  A    between atoms: _97  and  _99
REMARK   34  A    between atoms: _99  and  _100
REMARK   35  A    between atoms: _99  and  _102
REMARK   36  A    between atoms: _102  and  _103
REMARK   37  A    between atoms: _108  and  _110
REMARK   38  A    between atoms: _110  and  _111
REMARK   39  A    between atoms: _110  and  _113
REMARK   40  A    between atoms: _113  and  _114
REMARK   41  A    between atoms: _117  and  _119
REMARK   42  A    between atoms: _119  and  _120
REMARK   43  A    between atoms: _119  and  _122
REMARK   44  A    between atoms: _122  and  _123
REMARK   45  A    between atoms: _123  and  _124
REMARK   46  A    between atoms: _129  and  _131
REMARK   47  A    between atoms: _131  and  _132
REMARK   48  A    between atoms: _131  and  _134
REMARK   49  A    between atoms: _134  and  _135
REMARK   50  A    between atoms: _141  and  _143
REMARK   51  A    between atoms: _154  and  _157
REMARK   52  A    between atoms: _157  and  _158
REMARK   53  A    between atoms: _166  and  _167
REMARK   54  A    between atoms: _175  and  _177
REMARK   55  A    between atoms: _177  and  _178
REMARK   56  A    between atoms: _177  and  _180
REMARK   57  A    between atoms: _180  and  _181
REMARK   58  A    between atoms: _181  and  _182
REMARK   59  A    between atoms: _185  and  _187
REMARK   60  A    between atoms: _187  and  _188
REMARK   61  A    between atoms: _187  and  _190
REMARK   62  A    between atoms: _190  and  _191
REMARK   63  A    between atoms: _196  and  _198
REMARK   64  A    between atoms: _198  and  _199
REMARK   65  A    between atoms: _198  and  _201
REMARK   66  A    between atoms: _201  and  _202
REMARK   67  A    between atoms: _202  and  _203
REMARK   68  A    between atoms: _206  and  _208
REMARK   69  A    between atoms: _208  and  _209
REMARK   70  A    between atoms: _208  and  _211
REMARK   71  A    between atoms: _211  and  _212
REMARK   72  A    between atoms: _215  and  _217
REMARK   73  A    between atoms: _217  and  _218
REMARK   74  A    between atoms: _217  and  _220
REMARK   75  A    between atoms: _220  and  _221
REMARK   76  A    between atoms: _222  and  ZN_456
REMARK   77  A    between atoms: _226  and  _228
REMARK   78  A    between atoms: _228  and  _229
REMARK   79  A    between atoms: _228  and  _231
REMARK   80  A    between atoms: _231  and  _232
REMARK   81  A    between atoms: _235  and  _237
REMARK   82  A    between atoms: _237  and  _238
REMARK   83  A    between atoms: _237  and  _240
REMARK   84  A    between atoms: _243  and  _245
REMARK   85  A    between atoms: _245  and  _246
REMARK   86  A    between atoms: _245  and  _248
REMARK   87  A    between atoms: _248  and  _249
REMARK   88  A    between atoms: _254  and  _256
REMARK   89  A    between atoms: _256  and  _257
REMARK   90  A    between atoms: _256  and  _259
REMARK   91  A    between atoms: _262  and  _264
REMARK   92  A    between atoms: _264  and  _265
REMARK   93  A    between atoms: _267  and  _269
REMARK   94  A    between atoms: _269  and  _270
REMARK   95  A    between atoms: _273  and  _275
REMARK   96  A    between atoms: _275  and  _276
REMARK   97  A    between atoms: _275  and  _278
REMARK   98  A    between atoms: _281  and  _283
REMARK   99  A    between atoms: _283  and  _284
REMARK  100  A    between atoms: _283  and  _286
REMARK  101  A    between atoms: _286  and  _287
REMARK  102  A    between atoms: _287  and  _288
REMARK  103  A    between atoms: _293  and  _295
REMARK  104  A    between atoms: _295  and  _296
REMARK  105  A    between atoms: _295  and  _298
REMARK  106  A    between atoms: _298  and  _299
REMARK  107  A    between atoms: _302  and  _304
REMARK  108  A    between atoms: _304  and  _305
REMARK  109  A    between atoms: _308  and  _310
REMARK  110  A    between atoms: _310  and  _311
REMARK  111  A    between atoms: _310  and  _313
REMARK  112  A    between atoms: _316  and  _318
REMARK  113  A    between atoms: _318  and  _319
REMARK  114  A    between atoms: _318  and  _321
REMARK  115  A    between atoms: _321  and  _322
REMARK  116  A    between atoms: _325  and  _327
REMARK  117  A    between atoms: _327  and  _328
REMARK  118  A    between atoms: _330  and  _332
REMARK  119  A    between atoms: _332  and  _333
REMARK  120  A    between atoms: _332  and  _335
REMARK  121  A    between atoms: _335  and  _336
REMARK  122  A    between atoms: _338  and  _340
REMARK  123  A    between atoms: _340  and  _341
REMARK  124  A    between atoms: _340  and  _343
REMARK  125  A    between atoms: _343  and  _344
REMARK  126  A    between atoms: _347  and  _349
REMARK  127  A    between atoms: _349  and  _350
REMARK  128  A    between atoms: _349  and  _352
REMARK  129  A    between atoms: _352  and  _353
REMARK  130  A    between atoms: _356  and  _358
REMARK  131  A    between atoms: _358  and  _359
REMARK  132  A    between atoms: _358  and  _361
REMARK  133  A    between atoms: _361  and  _362
REMARK  134  A    between atoms: _366  and  _367
REMARK  135  A    between atoms: _373  and  _374
REMARK  136  A    between atoms: _379  and  _381
REMARK  137  A    between atoms: _381  and  _382
REMARK  138  A    between atoms: _381  and  _384
REMARK  139  A    between atoms: _384  and  _385
REMARK  140  A    between atoms: _388  and  _390
REMARK  141  A    between atoms: _390  and  _391
REMARK  142  A    between atoms: _390  and  _393
REMARK  143  A    between atoms: _393  and  _394
REMARK  144  A    between atoms: _397  and  _399
REMARK  145  A    between atoms: _399  and  _400
REMARK  146  A    between atoms: _399  and  _402
REMARK  147  A    between atoms: _404  and  _406
REMARK  148  A    between atoms: _406  and  _407
REMARK  149  A    between atoms: _406  and  _409
REMARK  150  A    between atoms: _412  and  _414
REMARK  151  A    between atoms: _414  and  _415
REMARK  152  A    between atoms: _414  and  _417
REMARK  153  A    between atoms: _417  and  _418
REMARK  154  A    between atoms: _428  and  _430
REMARK  155  A    between atoms: _430  and  _431
REMARK  156  A    between atoms: _430  and  _433
REMARK  157  A    between atoms: _433  and  _434
REMARK  158  A    between atoms: _439  and  _441
REMARK  159  A    between atoms: _441  and  _442
REMARK  160  A    between atoms: _441  and  _444
REMARK  161  A    between atoms: _444  and  _445
REMARK  162  A    between atoms: _445  and  _446
REMARK  163  A    between atoms: _446  and  _447
REMARK                            x       y       z     vdW  Elec       q    Type
REMARK                         _______ _______ _______ _____ _____    ______ ____
ROOT
ATOM      1  C   THR A   4       0.929   1.427  16.534  0.00  0.00    +0.246 C 
ATOM      2  O   THR A   4       0.480   2.330  17.251  0.00  0.00    -0.273 OA
ATOM      3  N   PRO A   5       2.186   1.458  16.051  0.00  0.00    -0.272 N 
ATOM      4  CA  PRO A   5       3.008   2.658  16.216  0.00  0.00    +0.152 C 
ATOM      5  CB  PRO A   5       4.214   2.347  15.340  0.00  0.00    +0.031 C 
ATOM      6  CG  PRO A   5       4.410   0.883  15.599  0.00  0.00    +0.024 C 
ATOM      7  CD  PRO A   5       2.983   0.354  15.482  0.00  0.00    +0.094 C 
ENDROOT
BRANCH   4   8
ATOM      8  C   PRO A   5       2.182   3.814  15.647  0.00  0.00    +0.244 C 
ATOM      9  N   PRO A   6       2.303   5.020  16.228  0.00  0.00    -0.272 N 
ATOM     10  CA  PRO A   6       3.145   5.421  17.365  0.00  0.00    +0.152 C 
ATOM     11  CB  PRO A   6       3.128   6.944  17.273  0.00  0.00    +0.031 C 
ATOM     12  CG  PRO A   6       1.781   7.235  16.705  0.00  0.00    +0.024 C 
ATOM     13  CD  PRO A   6       1.621   6.191  15.636  0.00  0.00    +0.094 C 
ATOM     14  O   PRO A   5       1.470   3.633  14.651  0.00  0.00    -0.273 OA
BRANCH  10  15
ATOM     15  C   PRO A   6       2.810   4.922  18.788  0.00  0.00    +0.241 C 
ATOM     16  O   PRO A   6       3.483   5.325  19.737  0.00  0.00    -0.273 OA
ATOM     17  N   LEU A   7       1.781   4.076  18.932  0.00  0.00    -0.297 N 
ATOM     18  H   LEU A   7       1.226   3.820  18.091  0.00  0.00    +0.150 HD
BRANCH  17  19
ATOM     19  CA  LEU A   7       1.401   3.490  20.236  0.00  0.00    +0.149 C 
BRANCH  19  20
ATOM     20  C   LEU A   7       1.066   4.519  21.332  0.00  0.00    +0.241 C 
ATOM     21  O   LEU A   7       1.303   4.284  22.525  0.00  0.00    -0.273 OA
ATOM     22  N   LEU A   8       0.459   5.630  20.928  0.00  0.00    -0.298 N 
ATOM     23  H   LEU A   8       0.217   5.734  19.922  0.00  0.00    +0.150 HD
BRANCH  22  24
ATOM     24  CA  LEU A   8       0.121   6.710  21.853  0.00  0.00    +0.137 C 
BRANCH  24  25
ATOM     25  C   LEU A   8      -0.912   6.269  22.892  0.00  0.00    +0.227 C 
ATOM     26  O   LEU A   8      -1.876   5.584  22.570  0.00  0.00    -0.286 OA
ENDBRANCH  24  25
BRANCH  24  27
ATOM     27  CB  LEU A   8      -0.351   7.933  21.055  0.00  0.00    +0.028 C 
BRANCH  27  28
ATOM     28  CG  LEU A   8       0.720   8.412  20.052  0.00  0.00    +0.002 C 
ATOM     29  CD2 LEU A   8       1.905   9.060  20.806  0.00  0.00    +0.000 C 
ATOM     30  CD1 LEU A   8       0.124   9.372  19.025  0.00  0.00    +0.000 C 
ENDBRANCH  27  28
ENDBRANCH  24  27
ENDBRANCH  22  24
ENDBRANCH  19  20
BRANCH  19  31
ATOM     31  CB  LEU A   7       2.536   2.588  20.720  0.00  0.00    +0.029 C 
BRANCH  31  32
ATOM     32  CG  LEU A   7       2.943   1.468  19.767  0.00  0.00    +0.002 C 
ATOM     33  CD2 LEU A   7       4.302   0.937  20.142  0.00  0.00    +0.000 C 
ATOM     34  CD1 LEU A   7       1.899   0.361  19.838  0.00  0.00    +0.000 C 
ENDBRANCH  31  32
ENDBRANCH  19  31
ENDBRANCH  17  19
ENDBRANCH  10  15
ENDBRANCH   4   8
BRANCH   1  35
ATOM     35  CA  THR A   4       0.129   0.152  16.307  0.00  0.00    +0.176 C 
BRANCH  35  38
ATOM     36  C   THR A   3      -1.067  -0.975  18.082  0.00  0.00    +0.243 C 
ATOM     37  O   THR A   3      -0.442  -2.018  17.877  0.00  0.00    -0.273 OA
ATOM     38  N   THR A   4      -0.899   0.114  17.337  0.00  0.00    -0.295 N 
ATOM     39  H   THR A   4      -1.506   0.944  17.491  0.00  0.00    +0.150 HD
BRANCH  36  40
ATOM     40  CA  THR A   3      -2.122  -0.905  19.185  0.00  0.00    +0.176 C 
BRANCH  40  43
ATOM     41  C   LEU A   2      -2.411   1.364  19.956  0.00  0.00    +0.241 C 
ATOM     42  O   LEU A   2      -1.409   1.259  20.686  0.00  0.00    -0.273 OA
ATOM     43  N   THR A   3      -2.839   0.365  19.186  0.00  0.00    -0.295 N 
ATOM     44  H   THR A   3      -3.681   0.490  18.588  0.00  0.00    +0.150 HD
BRANCH  41  45
ATOM     45  CA  LEU A   2      -3.192   2.682  19.936  0.00  0.00    +0.149 C 
BRANCH  45  48
ATOM     46  C   SER A   1      -3.598   2.516  22.329  0.00  0.00    +0.241 C 
ATOM     47  O   SER A   1      -4.417   1.611  22.184  0.00  0.00    -0.274 OA
ATOM     48  N   LEU A   2      -3.003   3.128  21.310  0.00  0.00    -0.297 N 
ATOM     49  H   LEU A   2      -2.388   3.945  21.498  0.00  0.00    +0.150 HD
BRANCH  46  50
ATOM     50  CA  SER A   1      -3.221   3.013  23.725  0.00  0.00    +0.174 C 
BRANCH  50  51
ATOM     51  N   SER A   1      -3.971   2.338  24.774  0.00  0.00    -0.236 NA
ATOM     52  H   SER A   1      -4.188   1.327  24.664  0.00  0.00    +0.142 HD
ENDBRANCH  50  51
BRANCH  50  53
ATOM     53  CB  SER A   1      -1.740   2.676  23.929  0.00  0.00    +0.163 C 
BRANCH  53  54
ATOM     54  OG  SER A   1      -1.474   1.312  23.570  0.00  0.00    -0.380 OA
ATOM     55  H   SER A   1      -1.706   1.171  22.618  0.00  0.00    +0.211 HD
ENDBRANCH  53  54
ENDBRANCH  50  53
ENDBRANCH  46  50
ENDBRANCH  45  48
BRANCH  45  56
ATOM     56  CB  LEU A   2      -2.485   3.635  18.968  0.00  0.00    +0.029 C 
BRANCH  56  57
ATOM     57  CG  LEU A   2      -2.914   5.095  19.013  0.00  0.00    +0.002 C 
ATOM     58  CD2 LEU A   2      -4.366   5.181  18.638  0.00  0.00    +0.000 C 
ATOM     59  CD1 LEU A   2      -2.047   5.906  18.068  0.00  0.00    +0.000 C 
ENDBRANCH  56  57
ENDBRANCH  45  56
ENDBRANCH  41  45
ENDBRANCH  40  43
BRANCH  40  60
ATOM     60  CB  THR A   3      -3.074  -2.099  19.068  0.00  0.00    +0.137 C 
ATOM     61  CG2 THR A   3      -4.125  -2.067  20.166  0.00  0.00    +0.034 C 
BRANCH  60  62
ATOM     62  OG1 THR A   3      -3.709  -2.067  17.790  0.00  0.00    -0.382 OA
ATOM     63  HG1 THR A   3      -4.326  -2.837  17.710  0.00  0.00    +0.210 HD
ENDBRANCH  60  62
ENDBRANCH  40  60
ENDBRANCH  36  40
ENDBRANCH  35  38
BRANCH  35  64
ATOM     64  CB  THR A   4      -0.472   0.169  14.873  0.00  0.00    +0.137 C 
ATOM     65  CG2 THR A   4      -1.416  -1.013  14.664  0.00  0.00    +0.034 C 
BRANCH  64  66
ATOM     66  OG1 THR A   4      -1.212   1.378  14.679  0.00  0.00    -0.382 OA
ATOM     67  HG1 THR A   4      -0.609   2.155  14.793  0.00  0.00    +0.210 HD
ENDBRANCH  64  66
ENDBRANCH  35  64
ENDBRANCH   1  35
TORSDOF 26
REMARK  Name = ../refined-set-2016/1g4j/1g4j_pocket.pdb
REMARK  163 active torsions:
REMARK  status: ('A' for Active; 'I' for Inactive)
REMARK    1  A    between atoms: _1  and  _3
REMARK    2  A    between atoms: _3  and  _4
REMARK    3  A    between atoms: _3  and  _6
REMARK    4  A    between atoms: _6  and  _7
REMARK    5  A    between atoms: _12  and  _14
REMARK    6  A    between atoms: _14  and  _15
REMARK    7  A    between atoms: _14  and  _17
REMARK    8  A    between atoms: _17  and  _18
REMARK    9  A    between atoms: _28  and  _30
REMARK   10  A    between atoms: _30  and  _31
REMARK   11  A    between atoms: _30  and  _33
REMARK   12  A    between atoms: _33  and  _34
REMARK   13  A    between atoms: _39  and  _40
REMARK   14  A    between atoms: _42  and  _44
REMARK   15  A    between atoms: _44  and  _45
REMARK   16  A    between atoms: _44  and  _47
REMARK   17  A    between atoms: _47  and  _48
REMARK   18  A    between atoms: _54  and  _56
REMARK   19  A    between atoms: _56  and  _57
REMARK   20  A    between atoms: _56  and  _59
REMARK   21  A    between atoms: _59  and  _60
REMARK   22  A    between atoms: _63  and  _64
REMARK   23  A    between atoms: _69  and  _71
REMARK   24  A    between atoms: _71  and  _72
REMARK   25  A    between atoms: _71  and  _74
REMARK   26  A    between atoms: _74  and  _75
REMARK   27  A    between atoms: _80  and  _82
REMARK   28  A    between atoms: _82  and  _83
REMARK   29  A    between atoms: _82  and  _85
REMARK   30  A    between atoms: _85  and  _86
REMARK   31  A    between atoms: _91  and  _93
REMARK   32  A    between atoms: _93  and  _94
REMARK   33  A    between atoms: _97  and  _99
REMARK   34  A    between atoms: _99  and  _100
REMARK   35  A    between atoms: _99  and  _102
REMARK   36  A    between atoms: _102  and  _103
REMARK   37  A    between atoms: _108  and  _110
REMARK   38  A    between atoms: _110  and  _111
REMARK   39  A    between atoms: _110  and  _113
REMARK   40  A    between atoms: _113  and  _114
REMARK   41  A    between atoms: _117  and  _119
REMARK   42  A    between atoms: _119  and  _120
REMARK   43  A    between atoms: _119  and  _122
REMARK   44  A    between atoms: _122  and  _123
REMARK   45  A    between atoms: _123  and  _124
REMARK   46  A    between atoms: _129  and  _131
REMARK   47  A    between atoms: _131  and  _132
REMARK   48  A    between atoms: _131  and  _134
REMARK   49  A    between atoms: _134  and  _135
REMARK   50  A    between atoms: _141  and  _143
REMARK   51  A    between atoms: _154  and  _157
REMARK   52  A    between atoms: _157  and  _158
REMARK   53  A    between atoms: _166  and  _167
REMARK   54  A    between atoms: _175  and  _177
REMARK   55  A    between atoms: _177  and  _178
REMARK   56  A    between atoms: _177  and  _180
REMARK   57  A    between atoms: _180  and  _181
REMARK   58  A    between atoms: _181  and  _182
REMARK   59  A    between atoms: _185  and  _187
REMARK   60  A    between atoms: _187  and  _188
REMARK   61  A    between atoms: _187  and  _190
REMARK   62  A    between atoms: _190  and  _191
REMARK   63  A    between atoms: _196  and  _198
REMARK   64  A    between atoms: _198  and  _199
REMARK   65  A    between atoms: _198  and  _201
REMARK   66  A    between atoms: _201  and  _202
REMARK   67  A    between atoms: _202  and  _203
REMARK   68  A    between atoms: _206  and  _208
REMARK   69  A    between atoms: _208  and  _209
REMARK   70  A    between atoms: _208  and  _211
REMARK   71  A    between atoms: _211  and  _212
REMARK   72  A    between atoms: _215  and  _217
REMARK   73  A    between atoms: _217  and  _218
REMARK   74  A    between atoms: _217  and  _220
REMARK   75  A    between atoms: _220  and  _221
REMARK   76  A    between atoms: _222  and  ZN_456
REMARK   77  A    between atoms: _226  and  _228
REMARK   78  A    between atoms: _228  and  _229
REMARK   79  A    between atoms: _228  and  _231
REMARK   80  A    between atoms: _231  and  _232
REMARK   81  A    between atoms: _235  and  _237
REMARK   82  A    between atoms: _237  and  _238
REMARK   83  A    between atoms: _237  and  _240
REMARK   84  A    between atoms: _243  and  _245
REMARK   85  A    between atoms: _245  and  _246
REMARK   86  A    between atoms: _245  and  _248
REMARK   87  A    between atoms: _248  and  _249
REMARK   88  A    between atoms: _254  and  _256
REMARK   89  A    between atoms: _256  and  _257
REMARK   90  A    between atoms: _256  and  _259
REMARK   91  A    between atoms: _262  and  _264
REMARK   92  A    between atoms: _264  and  _265
REMARK   93  A    between atoms: _267  and  _269
REMARK   94  A    between atoms: _269  and  _270
REMARK   95  A    between atoms: _273  and  _275
REMARK   96  A    between atoms: _275  and  _276
REMARK   97  A    between atoms: _275  and  _278
REMARK   98  A    between atoms: _281  and  _283
REMARK   99  A    between atoms: _283  and  _284
REMARK  100  A    between atoms: _283  and  _286
REMARK  101  A    between atoms: _286  and  _287
REMARK  102  A    between atoms: _287  and  _288
REMARK  103  A    between atoms: _293  and  _295
REMARK  104  A    between atoms: _295  and  _296
REMARK  105  A    between atoms: _295  and  _298
REMARK  106  A    between atoms: _298  and  _299
REMARK  107  A    between atoms: _302  and  _304
REMARK  108  A    between atoms: _304  and  _305
REMARK  109  A    between atoms: _308  and  _310
REMARK  110  A    between atoms: _310  and  _311
REMARK  111  A    between atoms: _310  and  _313
REMARK  112  A    between atoms: _316  and  _318
REMARK  113  A    between atoms: _318  and  _319
REMARK  114  A    between atoms: _318  and  _321
REMARK  115  A    between atoms: _321  and  _322
REMARK  116  A    between atoms: _325  and  _327
REMARK  117  A    between atoms: _327  and  _328
REMARK  118  A    between atoms: _330  and  _332
REMARK  119  A    between atoms: _332  and  _333
REMARK  120  A    between atoms: _332  and  _335
REMARK  121  A    between atoms: _335  and  _336
REMARK  122  A    between atoms: _338  and  _340
REMARK  123  A    between atoms: _340  and  _341
REMARK  124  A    between atoms: _340  and  _343
REMARK  125  A    between atoms: _343  and  _344
REMARK  126  A    between atoms: _347  and  _349
REMARK  127  A    between atoms: _349  and  _350
REMARK  128  A    between atoms: _349  and  _352
REMARK  129  A    between atoms: _352  and  _353
REMARK  130  A    between atoms: _356  and  _358
REMARK  131  A    between atoms: _358  and  _359
REMARK  132  A    between atoms: _358  and  _361
REMARK  133  A    between atoms: _361  and  _362
REMARK  134  A    between atoms: _366  and  _367
REMARK  135  A    between atoms: _373  and  _374
REMARK  136  A    between atoms: _379  and  _381
REMARK  137  A    between atoms: _381  and  _382
REMARK  138  A    between atoms: _381  and  _384
REMARK  139  A    between atoms: _384  and  _385
REMARK  140  A    between atoms: _388  and  _390
REMARK  141  A    between atoms: _390  and  _391
REMARK  142  A    between atoms: _390  and  _393
REMARK  143  A    between atoms: _393  and  _394
REMARK  144  A    between atoms: _397  and  _399
REMARK  145  A    between atoms: _399  and  _400
REMARK  146  A    between atoms: _399  and  _402
REMARK  147  A    between atoms: _404  and  _406
REMARK  148  A    between atoms: _406  and  _407
REMARK  149  A    between atoms: _406  and  _409
REMARK  150  A    between atoms: _412  and  _414
REMARK  151  A    between atoms: _414  and  _415
REMARK  152  A    between atoms: _414  and  _417
REMARK  153  A    between atoms: _417  and  _418
REMARK  154  A    between atoms: _428  and  _430
REMARK  155  A    between atoms: _430  and  _431
REMARK  156  A    between atoms: _430  and  _433
REMARK  157  A    between atoms: _433  and  _434
REMARK  158  A    between atoms: _439  and  _441
REMARK  159  A    between atoms: _441  and  _442
REMARK  160  A    between atoms: _441  and  _444
REMARK  161  A    between atoms: _444  and  _445
REMARK  162  A    between atoms: _445  and  _446
REMARK  163  A    between atoms: _446  and  _447
REMARK                            x       y       z     vdW  Elec       q    Type
REMARK                         _______ _______ _______ _____ _____    ______ ____
ROOT
ATOM      1  C   CYS A   1      -6.009   7.682  24.158  0.00  0.00    +0.239 C 
ATOM      2  N   VAL A   2      -6.094   6.381  24.390  0.00  0.00    -0.298 N 
ATOM      3  H   VAL A   2      -5.272   5.866  24.767  0.00  0.00    +0.150 HD
ATOM      4  O   CYS A   1      -6.986   8.360  23.849  0.00  0.00    -0.274 OA
ENDROOT
BRANCH   1   5
ATOM      5  CA  CYS A   1      -4.642   8.332  24.385  0.00  0.00    +0.156 C 
BRANCH   5   6
ATOM      6  N   CYS A   1      -3.550   7.366  24.384  0.00  0.00    -0.237 NA
ATOM      7  H   CYS A   1      -3.442   6.722  23.575  0.00  0.00    +0.142 HD
ENDBRANCH   5   6
BRANCH   5   8
ATOM      8  CB  CYS A   1      -4.358   9.328  23.269  0.00  0.00    +0.095 C 
ATOM      9  SG  CYS A   1      -4.059   8.488  21.713  0.00  0.00    -0.080 S 
ENDBRANCH   5   8
ENDBRANCH   1   5
BRANCH   2  10
ATOM     10  CA  VAL A   2      -7.331   5.672  24.120  0.00  0.00    +0.137 C 
BRANCH  10  11
ATOM     11  CB  VAL A   2      -7.067   4.482  23.138  0.00  0.00    +0.026 C 
ATOM     12  CG2 VAL A   2      -8.384   3.757  22.783  0.00  0.00    +0.002 C 
ATOM     13  CG1 VAL A   2      -6.356   4.968  21.882  0.00  0.00    +0.002 C 
ENDBRANCH  10  11
BRANCH  10  14
ATOM     14  C   VAL A   2      -8.149   5.107  25.266  0.00  0.00    +0.227 C 
ATOM     15  O   VAL A   2      -7.616   4.464  26.172  0.00  0.00    -0.286 OA
ENDBRANCH  10  14
ENDBRANCH   2  10
TORSDOF 6
REMARK  Name = ../refined-set-2016/1g4j/1g4j_pocket.pdb
REMARK  163 active torsions:
REMARK  status: ('A' for Active; 'I' for Inactive)
REMARK    1  A    between atoms: _1  and  _3
REMARK    2  A    between atoms: _3  and  _4
REMARK    3  A    between atoms: _3  and  _6
REMARK    4  A    between atoms: _6  and  _7
REMARK    5  A    between atoms: _12  and  _14
REMARK    6  A    between atoms: _14  and  _15
REMARK    7  A    between atoms: _14  and  _17
REMARK    8  A    between atoms: _17  and  _18
REMARK    9  A    between atoms: _28  and  _30
REMARK   10  A    between atoms: _30  and  _31
REMARK   11  A    between atoms: _30  and  _33
REMARK   12  A    between atoms: _33  and  _34
REMARK   13  A    between atoms: _39  and  _40
REMARK   14  A    between atoms: _42  and  _44
REMARK   15  A    between atoms: _44  and  _45
REMARK   16  A    between atoms: _44  and  _47
REMARK   17  A    between atoms: _47  and  _48
REMARK   18  A    between atoms: _54  and  _56
REMARK   19  A    between atoms: _56  and  _57
REMARK   20  A    between atoms: _56  and  _59
REMARK   21  A    between atoms: _59  and  _60
REMARK   22  A    between atoms: _63  and  _64
REMARK   23  A    between atoms: _69  and  _71
REMARK   24  A    between atoms: _71  and  _72
REMARK   25  A    between atoms: _71  and  _74
REMARK   26  A    between atoms: _74  and  _75
REMARK   27  A    between atoms: _80  and  _82
REMARK   28  A    between atoms: _82  and  _83
REMARK   29  A    between atoms: _82  and  _85
REMARK   30  A    between atoms: _85  and  _86
REMARK   31  A    between atoms: _91  and  _93
REMARK   32  A    between atoms: _93  and  _94
REMARK   33  A    between atoms: _97  and  _99
REMARK   34  A    between atoms: _99  and  _100
REMARK   35  A    between atoms: _99  and  _102
REMARK   36  A    between atoms: _102  and  _103
REMARK   37  A    between atoms: _108  and  _110
REMARK   38  A    between atoms: _110  and  _111
REMARK   39  A    between atoms: _110  and  _113
REMARK   40  A    between atoms: _113  and  _114
REMARK   41  A    between atoms: _117  and  _119
REMARK   42  A    between atoms: _119  and  _120
REMARK   43  A    between atoms: _119  and  _122
REMARK   44  A    between atoms: _122  and  _123
REMARK   45  A    between atoms: _123  and  _124
REMARK   46  A    between atoms: _129  and  _131
REMARK   47  A    between atoms: _131  and  _132
REMARK   48  A    between atoms: _131  and  _134
REMARK   49  A    between atoms: _134  and  _135
REMARK   50  A    between atoms: _141  and  _143
REMARK   51  A    between atoms: _154  and  _157
REMARK   52  A    between atoms: _157  and  _158
REMARK   53  A    between atoms: _166  and  _167
REMARK   54  A    between atoms: _175  and  _177
REMARK   55  A    between atoms: _177  and  _178
REMARK   56  A    between atoms: _177  and  _180
REMARK   57  A    between atoms: _180  and  _181
REMARK   58  A    between atoms: _181  and  _182
REMARK   59  A    between atoms: _185  and  _187
REMARK   60  A    between atoms: _187  and  _188
REMARK   61  A    between atoms: _187  and  _190
REMARK   62  A    between atoms: _190  and  _191
REMARK   63  A    between atoms: _196  and  _198
REMARK   64  A    between atoms: _198  and  _199
REMARK   65  A    between atoms: _198  and  _201
REMARK   66  A    between atoms: _201  and  _202
REMARK   67  A    between atoms: _202  and  _203
REMARK   68  A    between atoms: _206  and  _208
REMARK   69  A    between atoms: _208  and  _209
REMARK   70  A    between atoms: _208  and  _211
REMARK   71  A    between atoms: _211  and  _212
REMARK   72  A    between atoms: _215  and  _217
REMARK   73  A    between atoms: _217  and  _218
REMARK   74  A    between atoms: _217  and  _220
REMARK   75  A    between atoms: _220  and  _221
REMARK   76  A    between atoms: _222  and  ZN_456
REMARK   77  A    between atoms: _226  and  _228
REMARK   78  A    between atoms: _228  and  _229
REMARK   79  A    between atoms: _228  and  _231
REMARK   80  A    between atoms: _231  and  _232
REMARK   81  A    between atoms: _235  and  _237
REMARK   82  A    between atoms: _237  and  _238
REMARK   83  A    between atoms: _237  and  _240
REMARK   84  A    between atoms: _243  and  _245
REMARK   85  A    between atoms: _245  and  _246
REMARK   86  A    between atoms: _245  and  _248
REMARK   87  A    between atoms: _248  and  _249
REMARK   88  A    between atoms: _254  and  _256
REMARK   89  A    between atoms: _256  and  _257
REMARK   90  A    between atoms: _256  and  _259
REMARK   91  A    between atoms: _262  and  _264
REMARK   92  A    between atoms: _264  and  _265
REMARK   93  A    between atoms: _267  and  _269
REMARK   94  A    between atoms: _269  and  _270
REMARK   95  A    between atoms: _273  and  _275
REMARK   96  A    between atoms: _275  and  _276
REMARK   97  A    between atoms: _275  and  _278
REMARK   98  A    between atoms: _281  and  _283
REMARK   99  A    between atoms: _283  and  _284
REMARK  100  A    between atoms: _283  and  _286
REMARK  101  A    between atoms: _286  and  _287
REMARK  102  A    between atoms: _287  and  _288
REMARK  103  A    between atoms: _293  and  _295
REMARK  104  A    between atoms: _295  and  _296
REMARK  105  A    between atoms: _295  and  _298
REMARK  106  A    between atoms: _298  and  _299
REMARK  107  A    between atoms: _302  and  _304
REMARK  108  A    between atoms: _304  and  _305
REMARK  109  A    between atoms: _308  and  _310
REMARK  110  A    between atoms: _310  and  _311
REMARK  111  A    between atoms: _310  and  _313
REMARK  112  A    between atoms: _316  and  _318
REMARK  113  A    between atoms: _318  and  _319
REMARK  114  A    between atoms: _318  and  _321
REMARK  115  A    between atoms: _321  and  _322
REMARK  116  A    between atoms: _325  and  _327
REMARK  117  A    between atoms: _327  and  _328
REMARK  118  A    between atoms: _330  and  _332
REMARK  119  A    between atoms: _332  and  _333
REMARK  120  A    between atoms: _332  and  _335
REMARK  121  A    between atoms: _335  and  _336
REMARK  122  A    between atoms: _338  and  _340
REMARK  123  A    between atoms: _340  and  _341
REMARK  124  A    between atoms: _340  and  _343
REMARK  125  A    between atoms: _343  and  _344
REMARK  126  A    between atoms: _347  and  _349
REMARK  127  A    between atoms: _349  and  _350
REMARK  128  A    between atoms: _349  and  _352
REMARK  129  A    between atoms: _352  and  _353
REMARK  130  A    between atoms: _356  and  _358
REMARK  131  A    between atoms: _358  and  _359
REMARK  132  A    between atoms: _358  and  _361
REMARK  133  A    between atoms: _361  and  _362
REMARK  134  A    between atoms: _366  and  _367
REMARK  135  A    between atoms: _373  and  _374
REMARK  136  A    between atoms: _379  and  _381
REMARK  137  A    between atoms: _381  and  _382
REMARK  138  A    between atoms: _381  and  _384
REMARK  139  A    between atoms: _384  and  _385
REMARK  140  A    between atoms: _388  and  _390
REMARK  141  A    between atoms: _390  and  _391
REMARK  142  A    between atoms: _390  and  _393
REMARK  143  A    between atoms: _393  and  _394
REMARK  144  A    between atoms: _397  and  _399
REMARK  145  A    between atoms: _399  and  _400
REMARK  146  A    between atoms: _399  and  _402
REMARK  147  A    between atoms: _404  and  _406
REMARK  148  A    between atoms: _406  and  _407
REMARK  149  A    between atoms: _406  and  _409
REMARK  150  A    between atoms: _412  and  _414
REMARK  151  A    between atoms: _414  and  _415
REMARK  152  A    between atoms: _414  and  _417
REMARK  153  A    between atoms: _417  and  _418
REMARK  154  A    between atoms: _428  and  _430
REMARK  155  A    between atoms: _430  and  _431
REMARK  156  A    between atoms: _430  and  _433
REMARK  157  A    between atoms: _433  and  _434
REMARK  158  A    between atoms: _439  and  _441
REMARK  159  A    between atoms: _441  and  _442
REMARK  160  A    between atoms: _441  and  _444
REMARK  161  A    between atoms: _444  and  _445
REMARK  162  A    between atoms: _445  and  _446
REMARK  163  A    between atoms: _446  and  _447
REMARK                            x       y       z     vdW  Elec       q    Type
REMARK                         _______ _______ _______ _____ _____    ______ ____
ROOT
ATOM      1  CG  TRP A   1      -8.930   0.172  24.252  0.00  0.00    -0.002 A 
ATOM      2  CD1 TRP A   1      -7.693   0.727  24.443  0.00  0.00    +0.068 A 
ATOM      3  NE1 TRP A   1      -6.955   0.650  23.280  0.00  0.00    -0.352 N 
ATOM      4  HE1 TRP A   1      -5.985   1.003  23.155  0.00  0.00    +0.166 HD
ATOM      5  CE2 TRP A   1      -7.710   0.032  22.315  0.00  0.00    +0.056 A 
ATOM      6  CZ2 TRP A   1      -7.400  -0.278  20.987  0.00  0.00    +0.017 A 
ATOM      7  CH2 TRP A   1      -8.362  -0.910  20.246  0.00  0.00    +0.001 A 
ATOM      8  CZ3 TRP A   1      -9.617  -1.238  20.796  0.00  0.00    +0.000 A 
ATOM      9  CE3 TRP A   1      -9.923  -0.930  22.111  0.00  0.00    +0.001 A 
ATOM     10  CD2 TRP A   1      -8.960  -0.285  22.893  0.00  0.00    +0.013 A 
ENDROOT
BRANCH   1  11
ATOM     11  CB  TRP A   1     -10.043   0.078  25.241  0.00  0.00    +0.053 C 
BRANCH  11  12
ATOM     12  CA  TRP A   1     -11.073   1.202  25.085  0.00  0.00    +0.137 C 
BRANCH  12  13
ATOM     13  N   TRP A   1     -10.616   2.381  25.774  0.00  0.00    -0.239 NA
ATOM     14  H   TRP A   1     -10.038   2.280  26.632  0.00  0.00    +0.142 HD
ENDBRANCH  12  13
BRANCH  12  15
ATOM     15  C   TRP A   1     -12.428   0.742  25.579  0.00  0.00    +0.224 C 
ATOM     16  O   TRP A   1     -12.679   0.679  26.782  0.00  0.00    -0.287 OA
ENDBRANCH  12  15
ENDBRANCH  11  12
ENDBRANCH   1  11
TORSDOF 4
REMARK  Name = ../refined-set-2016/1g4j/1g4j_pocket.pdb
REMARK  163 active torsions:
REMARK  status: ('A' for Active; 'I' for Inactive)
REMARK    1  A    between atoms: _1  and  _3
REMARK    2  A    between atoms: _3  and  _4
REMARK    3  A    between atoms: _3  and  _6
REMARK    4  A    between atoms: _6  and  _7
REMARK    5  A    between atoms: _12  and  _14
REMARK    6  A    between atoms: _14  and  _15
REMARK    7  A    between atoms: _14  and  _17
REMARK    8  A    between atoms: _17  and  _18
REMARK    9  A    between atoms: _28  and  _30
REMARK   10  A    between atoms: _30  and  _31
REMARK   11  A    between atoms: _30  and  _33
REMARK   12  A    between atoms: _33  and  _34
REMARK   13  A    between atoms: _39  and  _40
REMARK   14  A    between atoms: _42  and  _44
REMARK   15  A    between atoms: _44  and  _45
REMARK   16  A    between atoms: _44  and  _47
REMARK   17  A    between atoms: _47  and  _48
REMARK   18  A    between atoms: _54  and  _56
REMARK   19  A    between atoms: _56  and  _57
REMARK   20  A    between atoms: _56  and  _59
REMARK   21  A    between atoms: _59  and  _60
REMARK   22  A    between atoms: _63  and  _64
REMARK   23  A    between atoms: _69  and  _71
REMARK   24  A    between atoms: _71  and  _72
REMARK   25  A    between atoms: _71  and  _74
REMARK   26  A    between atoms: _74  and  _75
REMARK   27  A    between atoms: _80  and  _82
REMARK   28  A    between atoms: _82  and  _83
REMARK   29  A    between atoms: _82  and  _85
REMARK   30  A    between atoms: _85  and  _86
REMARK   31  A    between atoms: _91  and  _93
REMARK   32  A    between atoms: _93  and  _94
REMARK   33  A    between atoms: _97  and  _99
REMARK   34  A    between atoms: _99  and  _100
REMARK   35  A    between atoms: _99  and  _102
REMARK   36  A    between atoms: _102  and  _103
REMARK   37  A    between atoms: _108  and  _110
REMARK   38  A    between atoms: _110  and  _111
REMARK   39  A    between atoms: _110  and  _113
REMARK   40  A    between atoms: _113  and  _114
REMARK   41  A    between atoms: _117  and  _119
REMARK   42  A    between atoms: _119  and  _120
REMARK   43  A    between atoms: _119  and  _122
REMARK   44  A    between atoms: _122  and  _123
REMARK   45  A    between atoms: _123  and  _124
REMARK   46  A    between atoms: _129  and  _131
REMARK   47  A    between atoms: _131  and  _132
REMARK   48  A    between atoms: _131  and  _134
REMARK   49  A    between atoms: _134  and  _135
REMARK   50  A    between atoms: _141  and  _143
REMARK   51  A    between atoms: _154  and  _157
REMARK   52  A    between atoms: _157  and  _158
REMARK   53  A    between atoms: _166  and  _167
REMARK   54  A    between atoms: _175  and  _177
REMARK   55  A    between atoms: _177  and  _178
REMARK   56  A    between atoms: _177  and  _180
REMARK   57  A    between atoms: _180  and  _181
REMARK   58  A    between atoms: _181  and  _182
REMARK   59  A    between atoms: _185  and  _187
REMARK   60  A    between atoms: _187  and  _188
REMARK   61  A    between atoms: _187  and  _190
REMARK   62  A    between atoms: _190  and  _191
REMARK   63  A    between atoms: _196  and  _198
REMARK   64  A    between atoms: _198  and  _199
REMARK   65  A    between atoms: _198  and  _201
REMARK   66  A    between atoms: _201  and  _202
REMARK   67  A    between atoms: _202  and  _203
REMARK   68  A    between atoms: _206  and  _208
REMARK   69  A    between atoms: _208  and  _209
REMARK   70  A    between atoms: _208  and  _211
REMARK   71  A    between atoms: _211  and  _212
REMARK   72  A    between atoms: _215  and  _217
REMARK   73  A    between atoms: _217  and  _218
REMARK   74  A    between atoms: _217  and  _220
REMARK   75  A    between atoms: _220  and  _221
REMARK   76  A    between atoms: _222  and  ZN_456
REMARK   77  A    between atoms: _226  and  _228
REMARK   78  A    between atoms: _228  and  _229
REMARK   79  A    between atoms: _228  and  _231
REMARK   80  A    between atoms: _231  and  _232
REMARK   81  A    between atoms: _235  and  _237
REMARK   82  A    between atoms: _237  and  _238
REMARK   83  A    between atoms: _237  and  _240
REMARK   84  A    between atoms: _243  and  _245
REMARK   85  A    between atoms: _245  and  _246
REMARK   86  A    between atoms: _245  and  _248
REMARK   87  A    between atoms: _248  and  _249
REMARK   88  A    between atoms: _254  and  _256
REMARK   89  A    between atoms: _256  and  _257
REMARK   90  A    between atoms: _256  and  _259
REMARK   91  A    between atoms: _262  and  _264
REMARK   92  A    between atoms: _264  and  _265
REMARK   93  A    between atoms: _267  and  _269
REMARK   94  A    between atoms: _269  and  _270
REMARK   95  A    between atoms: _273  and  _275
REMARK   96  A    between atoms: _275  and  _276
REMARK   97  A    between atoms: _275  and  _278
REMARK   98  A    between atoms: _281  and  _283
REMARK   99  A    between atoms: _283  and  _284
REMARK  100  A    between atoms: _283  and  _286
REMARK  101  A    between atoms: _286  and  _287
REMARK  102  A    between atoms: _287  and  _288
REMARK  103  A    between atoms: _293  and  _295
REMARK  104  A    between atoms: _295  and  _296
REMARK  105  A    between atoms: _295  and  _298
REMARK  106  A    between atoms: _298  and  _299
REMARK  107  A    between atoms: _302  and  _304
REMARK  108  A    between atoms: _304  and  _305
REMARK  109  A    between atoms: _308  and  _310
REMARK  110  A    between atoms: _310  and  _311
REMARK  111  A    between atoms: _310  and  _313
REMARK  112  A    between atoms: _316  and  _318
REMARK  113  A    between atoms: _318  and  _319
REMARK  114  A    between atoms: _318  and  _321
REMARK  115  A    between atoms: _321  and  _322
REMARK  116  A    between atoms: _325  and  _327
REMARK  117  A    between atoms: _327  and  _328
REMARK  118  A    between atoms: _330  and  _332
REMARK  119  A    between atoms: _332  and  _333
REMARK  120  A    between atoms: _332  and  _335
REMARK  121  A    between atoms: _335  and  _336
REMARK  122  A    between atoms: _338  and  _340
REMARK  123  A    between atoms: _340  and  _341
REMARK  124  A    between atoms: _340  and  _343
REMARK  125  A    between atoms: _343  and  _344
REMARK  126  A    between atoms: _347  and  _349
REMARK  127  A    between atoms: _349  and  _350
REMARK  128  A    between atoms: _349  and  _352
REMARK  129  A    between atoms: _352  and  _353
REMARK  130  A    between atoms: _356  and  _358
REMARK  131  A    between atoms: _358  and  _359
REMARK  132  A    between atoms: _358  and  _361
REMARK  133  A    between atoms: _361  and  _362
REMARK  134  A    between atoms: _366  and  _367
REMARK  135  A    between atoms: _373  and  _374
REMARK  136  A    between atoms: _379  and  _381
REMARK  137  A    between atoms: _381  and  _382
REMARK  138  A    between atoms: _381  and  _384
REMARK  139  A    between atoms: _384  and  _385
REMARK  140  A    between atoms: _388  and  _390
REMARK  141  A    between atoms: _390  and  _391
REMARK  142  A    between atoms: _390  and  _393
REMARK  143  A    between atoms: _393  and  _394
REMARK  144  A    between atoms: _397  and  _399
REMARK  145  A    between atoms: _399  and  _400
REMARK  146  A    between atoms: _399  and  _402
REMARK  147  A    between atoms: _404  and  _406
REMARK  148  A    between atoms: _406  and  _407
REMARK  149  A    between atoms: _406  and  _409
REMARK  150  A    between atoms: _412  and  _414
REMARK  151  A    between atoms: _414  and  _415
REMARK  152  A    between atoms: _414  and  _417
REMARK  153  A    between atoms: _417  and  _418
REMARK  154  A    between atoms: _428  and  _430
REMARK  155  A    between atoms: _430  and  _431
REMARK  156  A    between atoms: _430  and  _433
REMARK  157  A    between atoms: _433  and  _434
REMARK  158  A    between atoms: _439  and  _441
REMARK  159  A    between atoms: _441  and  _442
REMARK  160  A    between atoms: _441  and  _444
REMARK  161  A    between atoms: _444  and  _445
REMARK  162  A    between atoms: _445  and  _446
REMARK  163  A    between atoms: _446  and  _447
REMARK                            x       y       z     vdW  Elec       q    Type
REMARK                         _______ _______ _______ _____ _____    ______ ____
ROOT
ATOM      1  CB  ASN A   1      -2.177  -7.071  10.585  0.00  0.00    +0.110 C 
ENDROOT
BRANCH   1   2
ATOM      2  CG  ASN A   1      -3.677  -7.273  10.345  0.00  0.00    +0.221 C 
ATOM      3  OD1 ASN A   1      -4.304  -8.149  10.944  0.00  0.00    -0.275 OA
ATOM      4  ND2 ASN A   1      -4.249  -6.475   9.442  0.00  0.00    -0.329 N 
ATOM      5 HD21 ASN A   1      -5.260  -6.580   9.221  0.00  0.00    +0.145 HD
ATOM      6 HD22 ASN A   1      -3.684  -5.748   8.959  0.00  0.00    +0.145 HD
ENDBRANCH   1   2
BRANCH   1   7
ATOM      7  CA  ASN A   1      -1.605  -7.983  11.690  0.00  0.00    +0.142 C 
BRANCH   7   8
ATOM      8  N   ASN A   1      -1.960  -9.377  11.470  0.00  0.00    -0.239 NA
ATOM      9  H   ASN A   1      -2.887  -9.605  11.057  0.00  0.00    +0.142 HD
ENDBRANCH   7   8
BRANCH   7  10
ATOM     10  C   ASN A   1      -2.153  -7.598  13.060  0.00  0.00    +0.225 C 
ATOM     11  O   ASN A   1      -2.909  -6.641  13.204  0.00  0.00    -0.287 OA
ENDBRANCH   7  10
ENDBRANCH   1   7
TORSDOF 4
REMARK  Name = ../refined-set-2016/1g4j/1g4j_pocket.pdb
REMARK  163 active torsions:
REMARK  status: ('A' for Active; 'I' for Inactive)
REMARK    1  A    between atoms: _1  and  _3
REMARK    2  A    between atoms: _3  and  _4
REMARK    3  A    between atoms: _3  and  _6
REMARK    4  A    between atoms: _6  and  _7
REMARK    5  A    between atoms: _12  and  _14
REMARK    6  A    between atoms: _14  and  _15
REMARK    7  A    between atoms: _14  and  _17
REMARK    8  A    between atoms: _17  and  _18
REMARK    9  A    between atoms: _28  and  _30
REMARK   10  A    between atoms: _30  and  _31
REMARK   11  A    between atoms: _30  and  _33
REMARK   12  A    between atoms: _33  and  _34
REMARK   13  A    between atoms: _39  and  _40
REMARK   14  A    between atoms: _42  and  _44
REMARK   15  A    between atoms: _44  and  _45
REMARK   16  A    between atoms: _44  and  _47
REMARK   17  A    between atoms: _47  and  _48
REMARK   18  A    between atoms: _54  and  _56
REMARK   19  A    between atoms: _56  and  _57
REMARK   20  A    between atoms: _56  and  _59
REMARK   21  A    between atoms: _59  and  _60
REMARK   22  A    between atoms: _63  and  _64
REMARK   23  A    between atoms: _69  and  _71
REMARK   24  A    between atoms: _71  and  _72
REMARK   25  A    between atoms: _71  and  _74
REMARK   26  A    between atoms: _74  and  _75
REMARK   27  A    between atoms: _80  and  _82
REMARK   28  A    between atoms: _82  and  _83
REMARK   29  A    between atoms: _82  and  _85
REMARK   30  A    between atoms: _85  and  _86
REMARK   31  A    between atoms: _91  and  _93
REMARK   32  A    between atoms: _93  and  _94
REMARK   33  A    between atoms: _97  and  _99
REMARK   34  A    between atoms: _99  and  _100
REMARK   35  A    between atoms: _99  and  _102
REMARK   36  A    between atoms: _102  and  _103
REMARK   37  A    between atoms: _108  and  _110
REMARK   38  A    between atoms: _110  and  _111
REMARK   39  A    between atoms: _110  and  _113
REMARK   40  A    between atoms: _113  and  _114
REMARK   41  A    between atoms: _117  and  _119
REMARK   42  A    between atoms: _119  and  _120
REMARK   43  A    between atoms: _119  and  _122
REMARK   44  A    between atoms: _122  and  _123
REMARK   45  A    between atoms: _123  and  _124
REMARK   46  A    between atoms: _129  and  _131
REMARK   47  A    between atoms: _131  and  _132
REMARK   48  A    between atoms: _131  and  _134
REMARK   49  A    between atoms: _134  and  _135
REMARK   50  A    between atoms: _141  and  _143
REMARK   51  A    between atoms: _154  and  _157
REMARK   52  A    between atoms: _157  and  _158
REMARK   53  A    between atoms: _166  and  _167
REMARK   54  A    between atoms: _175  and  _177
REMARK   55  A    between atoms: _177  and  _178
REMARK   56  A    between atoms: _177  and  _180
REMARK   57  A    between atoms: _180  and  _181
REMARK   58  A    between atoms: _181  and  _182
REMARK   59  A    between atoms: _185  and  _187
REMARK   60  A    between atoms: _187  and  _188
REMARK   61  A    between atoms: _187  and  _190
REMARK   62  A    between atoms: _190  and  _191
REMARK   63  A    between atoms: _196  and  _198
REMARK   64  A    between atoms: _198  and  _199
REMARK   65  A    between atoms: _198  and  _201
REMARK   66  A    between atoms: _201  and  _202
REMARK   67  A    between atoms: _202  and  _203
REMARK   68  A    between atoms: _206  and  _208
REMARK   69  A    between atoms: _208  and  _209
REMARK   70  A    between atoms: _208  and  _211
REMARK   71  A    between atoms: _211  and  _212
REMARK   72  A    between atoms: _215  and  _217
REMARK   73  A    between atoms: _217  and  _218
REMARK   74  A    between atoms: _217  and  _220
REMARK   75  A    between atoms: _220  and  _221
REMARK   76  A    between atoms: _222  and  ZN_456
REMARK   77  A    between atoms: _226  and  _228
REMARK   78  A    between atoms: _228  and  _229
REMARK   79  A    between atoms: _228  and  _231
REMARK   80  A    between atoms: _231  and  _232
REMARK   81  A    between atoms: _235  and  _237
REMARK   82  A    between atoms: _237  and  _238
REMARK   83  A    between atoms: _237  and  _240
REMARK   84  A    between atoms: _243  and  _245
REMARK   85  A    between atoms: _245  and  _246
REMARK   86  A    between atoms: _245  and  _248
REMARK   87  A    between atoms: _248  and  _249
REMARK   88  A    between atoms: _254  and  _256
REMARK   89  A    between atoms: _256  and  _257
REMARK   90  A    between atoms: _256  and  _259
REMARK   91  A    between atoms: _262  and  _264
REMARK   92  A    between atoms: _264  and  _265
REMARK   93  A    between atoms: _267  and  _269
REMARK   94  A    between atoms: _269  and  _270
REMARK   95  A    between atoms: _273  and  _275
REMARK   96  A    between atoms: _275  and  _276
REMARK   97  A    between atoms: _275  and  _278
REMARK   98  A    between atoms: _281  and  _283
REMARK   99  A    between atoms: _283  and  _284
REMARK  100  A    between atoms: _283  and  _286
REMARK  101  A    between atoms: _286  and  _287
REMARK  102  A    between atoms: _287  and  _288
REMARK  103  A    between atoms: _293  and  _295
REMARK  104  A    between atoms: _295  and  _296
REMARK  105  A    between atoms: _295  and  _298
REMARK  106  A    between atoms: _298  and  _299
REMARK  107  A    between atoms: _302  and  _304
REMARK  108  A    between atoms: _304  and  _305
REMARK  109  A    between atoms: _308  and  _310
REMARK  110  A    between atoms: _310  and  _311
REMARK  111  A    between atoms: _310  and  _313
REMARK  112  A    between atoms: _316  and  _318
REMARK  113  A    between atoms: _318  and  _319
REMARK  114  A    between atoms: _318  and  _321
REMARK  115  A    between atoms: _321  and  _322
REMARK  116  A    between atoms: _325  and  _327
REMARK  117  A    between atoms: _327  and  _328
REMARK  118  A    between atoms: _330  and  _332
REMARK  119  A    between atoms: _332  and  _333
REMARK  120  A    between atoms: _332  and  _335
REMARK  121  A    between atoms: _335  and  _336
REMARK  122  A    between atoms: _338  and  _340
REMARK  123  A    between atoms: _340  and  _341
REMARK  124  A    between atoms: _340  and  _343
REMARK  125  A    between atoms: _343  and  _344
REMARK  126  A    between atoms: _347  and  _349
REMARK  127  A    between atoms: _349  and  _350
REMARK  128  A    between atoms: _349  and  _352
REMARK  129  A    between atoms: _352  and  _353
REMARK  130  A    between atoms: _356  and  _358
REMARK  131  A    between atoms: _358  and  _359
REMARK  132  A    between atoms: _358  and  _361
REMARK  133  A    between atoms: _361  and  _362
REMARK  134  A    between atoms: _366  and  _367
REMARK  135  A    between atoms: _373  and  _374
REMARK  136  A    between atoms: _379  and  _381
REMARK  137  A    between atoms: _381  and  _382
REMARK  138  A    between atoms: _381  and  _384
REMARK  139  A    between atoms: _384  and  _385
REMARK  140  A    between atoms: _388  and  _390
REMARK  141  A    between atoms: _390  and  _391
REMARK  142  A    between atoms: _390  and  _393
REMARK  143  A    between atoms: _393  and  _394
REMARK  144  A    between atoms: _397  and  _399
REMARK  145  A    between atoms: _399  and  _400
REMARK  146  A    between atoms: _399  and  _402
REMARK  147  A    between atoms: _404  and  _406
REMARK  148  A    between atoms: _406  and  _407
REMARK  149  A    between atoms: _406  and  _409
REMARK  150  A    between atoms: _412  and  _414
REMARK  151  A    between atoms: _414  and  _415
REMARK  152  A    between atoms: _414  and  _417
REMARK  153  A    between atoms: _417  and  _418
REMARK  154  A    between atoms: _428  and  _430
REMARK  155  A    between atoms: _430  and  _431
REMARK  156  A    between atoms: _430  and  _433
REMARK  157  A    between atoms: _433  and  _434
REMARK  158  A    between atoms: _439  and  _441
REMARK  159  A    between atoms: _441  and  _442
REMARK  160  A    between atoms: _441  and  _444
REMARK  161  A    between atoms: _444  and  _445
REMARK  162  A    between atoms: _445  and  _446
REMARK  163  A    between atoms: _446  and  _447
REMARK                            x       y       z     vdW  Elec       q    Type
REMARK                         _______ _______ _______ _____ _____    ______ ____
ROOT
ATOM      1  NE  ARG A   1       2.087  -3.670  21.255  0.00  0.00    +0.330 N 
ATOM      2  CZ  ARG A   1       2.229  -2.676  22.125  0.00  0.00    +0.000 C 
ATOM      3  NH2 ARG A   1       3.429  -2.433  22.634  0.00  0.00    +0.330 N 
ATOM      4 HH21 ARG A   1       3.557  -1.659  23.316  0.00  0.00    +0.000 HD
ATOM      5 HH22 ARG A   1       4.242  -3.017  22.351  0.00  0.00    +0.000 HD
ATOM      6  NH1 ARG A   1       1.199  -1.900  22.452  0.00  0.00    +0.330 N 
ATOM      7 HH11 ARG A   1       1.327  -1.126  23.135  0.00  0.00    +0.000 HD
ATOM      8 HH12 ARG A   1       0.266  -2.067  22.025  0.00  0.00    +0.000 HD
ATOM      9  HE  ARG A   1       2.927  -4.248  21.047  0.00  0.00    +0.000 HD
ENDROOT
BRANCH   1  10
ATOM     10  CD  ARG A   1       0.847  -4.016  20.568  0.00  0.00    +0.000 C 
BRANCH  10  11
ATOM     11  CG  ARG A   1       0.949  -5.417  19.992  0.00  0.00    +0.000 C 
BRANCH  11  12
ATOM     12  CB  ARG A   1      -0.134  -5.683  18.969  0.00  0.00    +0.000 C 
BRANCH  12  13
ATOM     13  CA  ARG A   1      -0.198  -7.138  18.495  0.00  0.00    +0.000 C 
BRANCH  13  14
ATOM     14  N   ARG A   1      -1.199  -7.268  17.455  0.00  0.00    +0.000 NA
ATOM     15  H   ARG A   1      -2.071  -6.705  17.528  0.00  0.00    +0.000 HD
ENDBRANCH  13  14
BRANCH  13  16
ATOM     16  C   ARG A   1      -0.618  -8.015  19.670  0.00  0.00    +0.000 C 
ATOM     17  O   ARG A   1      -1.802  -8.070  20.018  0.00  0.00    +0.000 OA
ENDBRANCH  13  16
ENDBRANCH  12  13
ENDBRANCH  11  12
ENDBRANCH  10  11
ENDBRANCH   1  10
TORSDOF 6
REMARK  Name = ../refined-set-2016/1g4j/1g4j_pocket.pdb
REMARK  163 active torsions:
REMARK  status: ('A' for Active; 'I' for Inactive)
REMARK    1  A    between atoms: _1  and  _3
REMARK    2  A    between atoms: _3  and  _4
REMARK    3  A    between atoms: _3  and  _6
REMARK    4  A    between atoms: _6  and  _7
REMARK    5  A    between atoms: _12  and  _14
REMARK    6  A    between atoms: _14  and  _15
REMARK    7  A    between atoms: _14  and  _17
REMARK    8  A    between atoms: _17  and  _18
REMARK    9  A    between atoms: _28  and  _30
REMARK   10  A    between atoms: _30  and  _31
REMARK   11  A    between atoms: _30  and  _33
REMARK   12  A    between atoms: _33  and  _34
REMARK   13  A    between atoms: _39  and  _40
REMARK   14  A    between atoms: _42  and  _44
REMARK   15  A    between atoms: _44  and  _45
REMARK   16  A    between atoms: _44  and  _47
REMARK   17  A    between atoms: _47  and  _48
REMARK   18  A    between atoms: _54  and  _56
REMARK   19  A    between atoms: _56  and  _57
REMARK   20  A    between atoms: _56  and  _59
REMARK   21  A    between atoms: _59  and  _60
REMARK   22  A    between atoms: _63  and  _64
REMARK   23  A    between atoms: _69  and  _71
REMARK   24  A    between atoms: _71  and  _72
REMARK   25  A    between atoms: _71  and  _74
REMARK   26  A    between atoms: _74  and  _75
REMARK   27  A    between atoms: _80  and  _82
REMARK   28  A    between atoms: _82  and  _83
REMARK   29  A    between atoms: _82  and  _85
REMARK   30  A    between atoms: _85  and  _86
REMARK   31  A    between atoms: _91  and  _93
REMARK   32  A    between atoms: _93  and  _94
REMARK   33  A    between atoms: _97  and  _99
REMARK   34  A    between atoms: _99  and  _100
REMARK   35  A    between atoms: _99  and  _102
REMARK   36  A    between atoms: _102  and  _103
REMARK   37  A    between atoms: _108  and  _110
REMARK   38  A    between atoms: _110  and  _111
REMARK   39  A    between atoms: _110  and  _113
REMARK   40  A    between atoms: _113  and  _114
REMARK   41  A    between atoms: _117  and  _119
REMARK   42  A    between atoms: _119  and  _120
REMARK   43  A    between atoms: _119  and  _122
REMARK   44  A    between atoms: _122  and  _123
REMARK   45  A    between atoms: _123  and  _124
REMARK   46  A    between atoms: _129  and  _131
REMARK   47  A    between atoms: _131  and  _132
REMARK   48  A    between atoms: _131  and  _134
REMARK   49  A    between atoms: _134  and  _135
REMARK   50  A    between atoms: _141  and  _143
REMARK   51  A    between atoms: _154  and  _157
REMARK   52  A    between atoms: _157  and  _158
REMARK   53  A    between atoms: _166  and  _167
REMARK   54  A    between atoms: _175  and  _177
REMARK   55  A    between atoms: _177  and  _178
REMARK   56  A    between atoms: _177  and  _180
REMARK   57  A    between atoms: _180  and  _181
REMARK   58  A    between atoms: _181  and  _182
REMARK   59  A    between atoms: _185  and  _187
REMARK   60  A    between atoms: _187  and  _188
REMARK   61  A    between atoms: _187  and  _190
REMARK   62  A    between atoms: _190  and  _191
REMARK   63  A    between atoms: _196  and  _198
REMARK   64  A    between atoms: _198  and  _199
REMARK   65  A    between atoms: _198  and  _201
REMARK   66  A    between atoms: _201  and  _202
REMARK   67  A    between atoms: _202  and  _203
REMARK   68  A    between atoms: _206  and  _208
REMARK   69  A    between atoms: _208  and  _209
REMARK   70  A    between atoms: _208  and  _211
REMARK   71  A    between atoms: _211  and  _212
REMARK   72  A    between atoms: _215  and  _217
REMARK   73  A    between atoms: _217  and  _218
REMARK   74  A    between atoms: _217  and  _220
REMARK   75  A    between atoms: _220  and  _221
REMARK   76  A    between atoms: _222  and  ZN_456
REMARK   77  A    between atoms: _226  and  _228
REMARK   78  A    between atoms: _228  and  _229
REMARK   79  A    between atoms: _228  and  _231
REMARK   80  A    between atoms: _231  and  _232
REMARK   81  A    between atoms: _235  and  _237
REMARK   82  A    between atoms: _237  and  _238
REMARK   83  A    between atoms: _237  and  _240
REMARK   84  A    between atoms: _243  and  _245
REMARK   85  A    between atoms: _245  and  _246
REMARK   86  A    between atoms: _245  and  _248
REMARK   87  A    between atoms: _248  and  _249
REMARK   88  A    between atoms: _254  and  _256
REMARK   89  A    between atoms: _256  and  _257
REMARK   90  A    between atoms: _256  and  _259
REMARK   91  A    between atoms: _262  and  _264
REMARK   92  A    between atoms: _264  and  _265
REMARK   93  A    between atoms: _267  and  _269
REMARK   94  A    between atoms: _269  and  _270
REMARK   95  A    between atoms: _273  and  _275
REMARK   96  A    between atoms: _275  and  _276
REMARK   97  A    between atoms: _275  and  _278
REMARK   98  A    between atoms: _281  and  _283
REMARK   99  A    between atoms: _283  and  _284
REMARK  100  A    between atoms: _283  and  _286
REMARK  101  A    between atoms: _286  and  _287
REMARK  102  A    between atoms: _287  and  _288
REMARK  103  A    between atoms: _293  and  _295
REMARK  104  A    between atoms: _295  and  _296
REMARK  105  A    between atoms: _295  and  _298
REMARK  106  A    between atoms: _298  and  _299
REMARK  107  A    between atoms: _302  and  _304
REMARK  108  A    between atoms: _304  and  _305
REMARK  109  A    between atoms: _308  and  _310
REMARK  110  A    between atoms: _310  and  _311
REMARK  111  A    between atoms: _310  and  _313
REMARK  112  A    between atoms: _316  and  _318
REMARK  113  A    between atoms: _318  and  _319
REMARK  114  A    between atoms: _318  and  _321
REMARK  115  A    between atoms: _321  and  _322
REMARK  116  A    between atoms: _325  and  _327
REMARK  117  A    between atoms: _327  and  _328
REMARK  118  A    between atoms: _330  and  _332
REMARK  119  A    between atoms: _332  and  _333
REMARK  120  A    between atoms: _332  and  _335
REMARK  121  A    between atoms: _335  and  _336
REMARK  122  A    between atoms: _338  and  _340
REMARK  123  A    between atoms: _340  and  _341
REMARK  124  A    between atoms: _340  and  _343
REMARK  125  A    between atoms: _343  and  _344
REMARK  126  A    between atoms: _347  and  _349
REMARK  127  A    between atoms: _349  and  _350
REMARK  128  A    between atoms: _349  and  _352
REMARK  129  A    between atoms: _352  and  _353
REMARK  130  A    between atoms: _356  and  _358
REMARK  131  A    between atoms: _358  and  _359
REMARK  132  A    between atoms: _358  and  _361
REMARK  133  A    between atoms: _361  and  _362
REMARK  134  A    between atoms: _366  and  _367
REMARK  135  A    between atoms: _373  and  _374
REMARK  136  A    between atoms: _379  and  _381
REMARK  137  A    between atoms: _381  and  _382
REMARK  138  A    between atoms: _381  and  _384
REMARK  139  A    between atoms: _384  and  _385
REMARK  140  A    between atoms: _388  and  _390
REMARK  141  A    between atoms: _390  and  _391
REMARK  142  A    between atoms: _390  and  _393
REMARK  143  A    between atoms: _393  and  _394
REMARK  144  A    between atoms: _397  and  _399
REMARK  145  A    between atoms: _399  and  _400
REMARK  146  A    between atoms: _399  and  _402
REMARK  147  A    between atoms: _404  and  _406
REMARK  148  A    between atoms: _406  and  _407
REMARK  149  A    between atoms: _406  and  _409
REMARK  150  A    between atoms: _412  and  _414
REMARK  151  A    between atoms: _414  and  _415
REMARK  152  A    between atoms: _414  and  _417
REMARK  153  A    between atoms: _417  and  _418
REMARK  154  A    between atoms: _428  and  _430
REMARK  155  A    between atoms: _430  and  _431
REMARK  156  A    between atoms: _430  and  _433
REMARK  157  A    between atoms: _433  and  _434
REMARK  158  A    between atoms: _439  and  _441
REMARK  159  A    between atoms: _441  and  _442
REMARK  160  A    between atoms: _441  and  _444
REMARK  161  A    between atoms: _444  and  _445
REMARK  162  A    between atoms: _445  and  _446
REMARK  163  A    between atoms: _446  and  _447
REMARK                            x       y       z     vdW  Elec       q    Type
REMARK                         _______ _______ _______ _____ _____    ______ ____
ROOT
ATOM      1  O   HOH     1      -1.365  -3.950  15.972  0.00  0.00    +0.000 OA
ENDROOT
TORSDOF 0
REMARK  Name = ../refined-set-2016/1g4j/1g4j_pocket.pdb
REMARK  163 active torsions:
REMARK  status: ('A' for Active; 'I' for Inactive)
REMARK    1  A    between atoms: _1  and  _3
REMARK    2  A    between atoms: _3  and  _4
REMARK    3  A    between atoms: _3  and  _6
REMARK    4  A    between atoms: _6  and  _7
REMARK    5  A    between atoms: _12  and  _14
REMARK    6  A    between atoms: _14  and  _15
REMARK    7  A    between atoms: _14  and  _17
REMARK    8  A    between atoms: _17  and  _18
REMARK    9  A    between atoms: _28  and  _30
REMARK   10  A    between atoms: _30  and  _31
REMARK   11  A    between atoms: _30  and  _33
REMARK   12  A    between atoms: _33  and  _34
REMARK   13  A    between atoms: _39  and  _40
REMARK   14  A    between atoms: _42  and  _44
REMARK   15  A    between atoms: _44  and  _45
REMARK   16  A    between atoms: _44  and  _47
REMARK   17  A    between atoms: _47  and  _48
REMARK   18  A    between atoms: _54  and  _56
REMARK   19  A    between atoms: _56  and  _57
REMARK   20  A    between atoms: _56  and  _59
REMARK   21  A    between atoms: _59  and  _60
REMARK   22  A    between atoms: _63  and  _64
REMARK   23  A    between atoms: _69  and  _71
REMARK   24  A    between atoms: _71  and  _72
REMARK   25  A    between atoms: _71  and  _74
REMARK   26  A    between atoms: _74  and  _75
REMARK   27  A    between atoms: _80  and  _82
REMARK   28  A    between atoms: _82  and  _83
REMARK   29  A    between atoms: _82  and  _85
REMARK   30  A    between atoms: _85  and  _86
REMARK   31  A    between atoms: _91  and  _93
REMARK   32  A    between atoms: _93  and  _94
REMARK   33  A    between atoms: _97  and  _99
REMARK   34  A    between atoms: _99  and  _100
REMARK   35  A    between atoms: _99  and  _102
REMARK   36  A    between atoms: _102  and  _103
REMARK   37  A    between atoms: _108  and  _110
REMARK   38  A    between atoms: _110  and  _111
REMARK   39  A    between atoms: _110  and  _113
REMARK   40  A    between atoms: _113  and  _114
REMARK   41  A    between atoms: _117  and  _119
REMARK   42  A    between atoms: _119  and  _120
REMARK   43  A    between atoms: _119  and  _122
REMARK   44  A    between atoms: _122  and  _123
REMARK   45  A    between atoms: _123  and  _124
REMARK   46  A    between atoms: _129  and  _131
REMARK   47  A    between atoms: _131  and  _132
REMARK   48  A    between atoms: _131  and  _134
REMARK   49  A    between atoms: _134  and  _135
REMARK   50  A    between atoms: _141  and  _143
REMARK   51  A    between atoms: _154  and  _157
REMARK   52  A    between atoms: _157  and  _158
REMARK   53  A    between atoms: _166  and  _167
REMARK   54  A    between atoms: _175  and  _177
REMARK   55  A    between atoms: _177  and  _178
REMARK   56  A    between atoms: _177  and  _180
REMARK   57  A    between atoms: _180  and  _181
REMARK   58  A    between atoms: _181  and  _182
REMARK   59  A    between atoms: _185  and  _187
REMARK   60  A    between atoms: _187  and  _188
REMARK   61  A    between atoms: _187  and  _190
REMARK   62  A    between atoms: _190  and  _191
REMARK   63  A    between atoms: _196  and  _198
REMARK   64  A    between atoms: _198  and  _199
REMARK   65  A    between atoms: _198  and  _201
REMARK   66  A    between atoms: _201  and  _202
REMARK   67  A    between atoms: _202  and  _203
REMARK   68  A    between atoms: _206  and  _208
REMARK   69  A    between atoms: _208  and  _209
REMARK   70  A    between atoms: _208  and  _211
REMARK   71  A    between atoms: _211  and  _212
REMARK   72  A    between atoms: _215  and  _217
REMARK   73  A    between atoms: _217  and  _218
REMARK   74  A    between atoms: _217  and  _220
REMARK   75  A    between atoms: _220  and  _221
REMARK   76  A    between atoms: _222  and  ZN_456
REMARK   77  A    between atoms: _226  and  _228
REMARK   78  A    between atoms: _228  and  _229
REMARK   79  A    between atoms: _228  and  _231
REMARK   80  A    between atoms: _231  and  _232
REMARK   81  A    between atoms: _235  and  _237
REMARK   82  A    between atoms: _237  and  _238
REMARK   83  A    between atoms: _237  and  _240
REMARK   84  A    between atoms: _243  and  _245
REMARK   85  A    between atoms: _245  and  _246
REMARK   86  A    between atoms: _245  and  _248
REMARK   87  A    between atoms: _248  and  _249
REMARK   88  A    between atoms: _254  and  _256
REMARK   89  A    between atoms: _256  and  _257
REMARK   90  A    between atoms: _256  and  _259
REMARK   91  A    between atoms: _262  and  _264
REMARK   92  A    between atoms: _264  and  _265
REMARK   93  A    between atoms: _267  and  _269
REMARK   94  A    between atoms: _269  and  _270
REMARK   95  A    between atoms: _273  and  _275
REMARK   96  A    between atoms: _275  and  _276
REMARK   97  A    between atoms: _275  and  _278
REMARK   98  A    between atoms: _281  and  _283
REMARK   99  A    between atoms: _283  and  _284
REMARK  100  A    between atoms: _283  and  _286
REMARK  101  A    between atoms: _286  and  _287
REMARK  102  A    between atoms: _287  and  _288
REMARK  103  A    between atoms: _293  and  _295
REMARK  104  A    between atoms: _295  and  _296
REMARK  105  A    between atoms: _295  and  _298
REMARK  106  A    between atoms: _298  and  _299
REMARK  107  A    between atoms: _302  and  _304
REMARK  108  A    between atoms: _304  and  _305
REMARK  109  A    between atoms: _308  and  _310
REMARK  110  A    between atoms: _310  and  _311
REMARK  111  A    between atoms: _310  and  _313
REMARK  112  A    between atoms: _316  and  _318
REMARK  113  A    between atoms: _318  and  _319
REMARK  114  A    between atoms: _318  and  _321
REMARK  115  A    between atoms: _321  and  _322
REMARK  116  A    between atoms: _325  and  _327
REMARK  117  A    between atoms: _327  and  _328
REMARK  118  A    between atoms: _330  and  _332
REMARK  119  A    between atoms: _332  and  _333
REMARK  120  A    between atoms: _332  and  _335
REMARK  121  A    between atoms: _335  and  _336
REMARK  122  A    between atoms: _338  and  _340
REMARK  123  A    between atoms: _340  and  _341
REMARK  124  A    between atoms: _340  and  _343
REMARK  125  A    between atoms: _343  and  _344
REMARK  126  A    between atoms: _347  and  _349
REMARK  127  A    between atoms: _349  and  _350
REMARK  128  A    between atoms: _349  and  _352
REMARK  129  A    between atoms: _352  and  _353
REMARK  130  A    between atoms: _356  and  _358
REMARK  131  A    between atoms: _358  and  _359
REMARK  132  A    between atoms: _358  and  _361
REMARK  133  A    between atoms: _361  and  _362
REMARK  134  A    between atoms: _366  and  _367
REMARK  135  A    between atoms: _373  and  _374
REMARK  136  A    between atoms: _379  and  _381
REMARK  137  A    between atoms: _381  and  _382
REMARK  138  A    between atoms: _381  and  _384
REMARK  139  A    between atoms: _384  and  _385
REMARK  140  A    between atoms: _388  and  _390
REMARK  141  A    between atoms: _390  and  _391
REMARK  142  A    between atoms: _390  and  _393
REMARK  143  A    between atoms: _393  and  _394
REMARK  144  A    between atoms: _397  and  _399
REMARK  145  A    between atoms: _399  and  _400
REMARK  146  A    between atoms: _399  and  _402
REMARK  147  A    between atoms: _404  and  _406
REMARK  148  A    between atoms: _406  and  _407
REMARK  149  A    between atoms: _406  and  _409
REMARK  150  A    between atoms: _412  and  _414
REMARK  151  A    between atoms: _414  and  _415
REMARK  152  A    between atoms: _414  and  _417
REMARK  153  A    between atoms: _417  and  _418
REMARK  154  A    between atoms: _428  and  _430
REMARK  155  A    between atoms: _430  and  _431
REMARK  156  A    between atoms: _430  and  _433
REMARK  157  A    between atoms: _433  and  _434
REMARK  158  A    between atoms: _439  and  _441
REMARK  159  A    between atoms: _441  and  _442
REMARK  160  A    between atoms: _441  and  _444
REMARK  161  A    between atoms: _444  and  _445
REMARK  162  A    between atoms: _445  and  _446
REMARK  163  A    between atoms: _446  and  _447
REMARK                            x       y       z     vdW  Elec       q    Type
REMARK                         _______ _______ _______ _____ _____    ______ ____
ROOT
ATOM      1  O   HOH     1      -4.256  -0.635  12.379  0.00  0.00    +0.000 OA
ENDROOT
TORSDOF 0
REMARK  Name = ../refined-set-2016/1g4j/1g4j_pocket.pdb
REMARK  163 active torsions:
REMARK  status: ('A' for Active; 'I' for Inactive)
REMARK    1  A    between atoms: _1  and  _3
REMARK    2  A    between atoms: _3  and  _4
REMARK    3  A    between atoms: _3  and  _6
REMARK    4  A    between atoms: _6  and  _7
REMARK    5  A    between atoms: _12  and  _14
REMARK    6  A    between atoms: _14  and  _15
REMARK    7  A    between atoms: _14  and  _17
REMARK    8  A    between atoms: _17  and  _18
REMARK    9  A    between atoms: _28  and  _30
REMARK   10  A    between atoms: _30  and  _31
REMARK   11  A    between atoms: _30  and  _33
REMARK   12  A    between atoms: _33  and  _34
REMARK   13  A    between atoms: _39  and  _40
REMARK   14  A    between atoms: _42  and  _44
REMARK   15  A    between atoms: _44  and  _45
REMARK   16  A    between atoms: _44  and  _47
REMARK   17  A    between atoms: _47  and  _48
REMARK   18  A    between atoms: _54  and  _56
REMARK   19  A    between atoms: _56  and  _57
REMARK   20  A    between atoms: _56  and  _59
REMARK   21  A    between atoms: _59  and  _60
REMARK   22  A    between atoms: _63  and  _64
REMARK   23  A    between atoms: _69  and  _71
REMARK   24  A    between atoms: _71  and  _72
REMARK   25  A    between atoms: _71  and  _74
REMARK   26  A    between atoms: _74  and  _75
REMARK   27  A    between atoms: _80  and  _82
REMARK   28  A    between atoms: _82  and  _83
REMARK   29  A    between atoms: _82  and  _85
REMARK   30  A    between atoms: _85  and  _86
REMARK   31  A    between atoms: _91  and  _93
REMARK   32  A    between atoms: _93  and  _94
REMARK   33  A    between atoms: _97  and  _99
REMARK   34  A    between atoms: _99  and  _100
REMARK   35  A    between atoms: _99  and  _102
REMARK   36  A    between atoms: _102  and  _103
REMARK   37  A    between atoms: _108  and  _110
REMARK   38  A    between atoms: _110  and  _111
REMARK   39  A    between atoms: _110  and  _113
REMARK   40  A    between atoms: _113  and  _114
REMARK   41  A    between atoms: _117  and  _119
REMARK   42  A    between atoms: _119  and  _120
REMARK   43  A    between atoms: _119  and  _122
REMARK   44  A    between atoms: _122  and  _123
REMARK   45  A    between atoms: _123  and  _124
REMARK   46  A    between atoms: _129  and  _131
REMARK   47  A    between atoms: _131  and  _132
REMARK   48  A    between atoms: _131  and  _134
REMARK   49  A    between atoms: _134  and  _135
REMARK   50  A    between atoms: _141  and  _143
REMARK   51  A    between atoms: _154  and  _157
REMARK   52  A    between atoms: _157  and  _158
REMARK   53  A    between atoms: _166  and  _167
REMARK   54  A    between atoms: _175  and  _177
REMARK   55  A    between atoms: _177  and  _178
REMARK   56  A    between atoms: _177  and  _180
REMARK   57  A    between atoms: _180  and  _181
REMARK   58  A    between atoms: _181  and  _182
REMARK   59  A    between atoms: _185  and  _187
REMARK   60  A    between atoms: _187  and  _188
REMARK   61  A    between atoms: _187  and  _190
REMARK   62  A    between atoms: _190  and  _191
REMARK   63  A    between atoms: _196  and  _198
REMARK   64  A    between atoms: _198  and  _199
REMARK   65  A    between atoms: _198  and  _201
REMARK   66  A    between atoms: _201  and  _202
REMARK   67  A    between atoms: _202  and  _203
REMARK   68  A    between atoms: _206  and  _208
REMARK   69  A    between atoms: _208  and  _209
REMARK   70  A    between atoms: _208  and  _211
REMARK   71  A    between atoms: _211  and  _212
REMARK   72  A    between atoms: _215  and  _217
REMARK   73  A    between atoms: _217  and  _218
REMARK   74  A    between atoms: _217  and  _220
REMARK   75  A    between atoms: _220  and  _221
REMARK   76  A    between atoms: _222  and  ZN_456
REMARK   77  A    between atoms: _226  and  _228
REMARK   78  A    between atoms: _228  and  _229
REMARK   79  A    between atoms: _228  and  _231
REMARK   80  A    between atoms: _231  and  _232
REMARK   81  A    between atoms: _235  and  _237
REMARK   82  A    between atoms: _237  and  _238
REMARK   83  A    between atoms: _237  and  _240
REMARK   84  A    between atoms: _243  and  _245
REMARK   85  A    between atoms: _245  and  _246
REMARK   86  A    between atoms: _245  and  _248
REMARK   87  A    between atoms: _248  and  _249
REMARK   88  A    between atoms: _254  and  _256
REMARK   89  A    between atoms: _256  and  _257
REMARK   90  A    between atoms: _256  and  _259
REMARK   91  A    between atoms: _262  and  _264
REMARK   92  A    between atoms: _264  and  _265
REMARK   93  A    between atoms: _267  and  _269
REMARK   94  A    between atoms: _269  and  _270
REMARK   95  A    between atoms: _273  and  _275
REMARK   96  A    between atoms: _275  and  _276
REMARK   97  A    between atoms: _275  and  _278
REMARK   98  A    between atoms: _281  and  _283
REMARK   99  A    between atoms: _283  and  _284
REMARK  100  A    between atoms: _283  and  _286
REMARK  101  A    between atoms: _286  and  _287
REMARK  102  A    between atoms: _287  and  _288
REMARK  103  A    between atoms: _293  and  _295
REMARK  104  A    between atoms: _295  and  _296
REMARK  105  A    between atoms: _295  and  _298
REMARK  106  A    between atoms: _298  and  _299
REMARK  107  A    between atoms: _302  and  _304
REMARK  108  A    between atoms: _304  and  _305
REMARK  109  A    between atoms: _308  and  _310
REMARK  110  A    between atoms: _310  and  _311
REMARK  111  A    between atoms: _310  and  _313
REMARK  112  A    between atoms: _316  and  _318
REMARK  113  A    between atoms: _318  and  _319
REMARK  114  A    between atoms: _318  and  _321
REMARK  115  A    between atoms: _321  and  _322
REMARK  116  A    between atoms: _325  and  _327
REMARK  117  A    between atoms: _327  and  _328
REMARK  118  A    between atoms: _330  and  _332
REMARK  119  A    between atoms: _332  and  _333
REMARK  120  A    between atoms: _332  and  _335
REMARK  121  A    between atoms: _335  and  _336
REMARK  122  A    between atoms: _338  and  _340
REMARK  123  A    between atoms: _340  and  _341
REMARK  124  A    between atoms: _340  and  _343
REMARK  125  A    between atoms: _343  and  _344
REMARK  126  A    between atoms: _347  and  _349
REMARK  127  A    between atoms: _349  and  _350
REMARK  128  A    between atoms: _349  and  _352
REMARK  129  A    between atoms: _352  and  _353
REMARK  130  A    between atoms: _356  and  _358
REMARK  131  A    between atoms: _358  and  _359
REMARK  132  A    between atoms: _358  and  _361
REMARK  133  A    between atoms: _361  and  _362
REMARK  134  A    between atoms: _366  and  _367
REMARK  135  A    between atoms: _373  and  _374
REMARK  136  A    between atoms: _379  and  _381
REMARK  137  A    between atoms: _381  and  _382
REMARK  138  A    between atoms: _381  and  _384
REMARK  139  A    between atoms: _384  and  _385
REMARK  140  A    between atoms: _388  and  _390
REMARK  141  A    between atoms: _390  and  _391
REMARK  142  A    between atoms: _390  and  _393
REMARK  143  A    between atoms: _393  and  _394
REMARK  144  A    between atoms: _397  and  _399
REMARK  145  A    between atoms: _399  and  _400
REMARK  146  A    between atoms: _399  and  _402
REMARK  147  A    between atoms: _404  and  _406
REMARK  148  A    between atoms: _406  and  _407
REMARK  149  A    between atoms: _406  and  _409
REMARK  150  A    between atoms: _412  and  _414
REMARK  151  A    between atoms: _414  and  _415
REMARK  152  A    between atoms: _414  and  _417
REMARK  153  A    between atoms: _417  and  _418
REMARK  154  A    between atoms: _428  and  _430
REMARK  155  A    between atoms: _430  and  _431
REMARK  156  A    between atoms: _430  and  _433
REMARK  157  A    between atoms: _433  and  _434
REMARK  158  A    between atoms: _439  and  _441
REMARK  159  A    between atoms: _441  and  _442
REMARK  160  A    between atoms: _441  and  _444
REMARK  161  A    between atoms: _444  and  _445
REMARK  162  A    between atoms: _445  and  _446
REMARK  163  A    between atoms: _446  and  _447
REMARK                            x       y       z     vdW  Elec       q    Type
REMARK                         _______ _______ _______ _____ _____    ______ ____
ROOT
ATOM      1  O   HOH     1      -0.750   3.961  13.284  0.00  0.00    +0.000 OA
ENDROOT
TORSDOF 0
REMARK  Name = ../refined-set-2016/1g4j/1g4j_pocket.pdb
REMARK  163 active torsions:
REMARK  status: ('A' for Active; 'I' for Inactive)
REMARK    1  A    between atoms: _1  and  _3
REMARK    2  A    between atoms: _3  and  _4
REMARK    3  A    between atoms: _3  and  _6
REMARK    4  A    between atoms: _6  and  _7
REMARK    5  A    between atoms: _12  and  _14
REMARK    6  A    between atoms: _14  and  _15
REMARK    7  A    between atoms: _14  and  _17
REMARK    8  A    between atoms: _17  and  _18
REMARK    9  A    between atoms: _28  and  _30
REMARK   10  A    between atoms: _30  and  _31
REMARK   11  A    between atoms: _30  and  _33
REMARK   12  A    between atoms: _33  and  _34
REMARK   13  A    between atoms: _39  and  _40
REMARK   14  A    between atoms: _42  and  _44
REMARK   15  A    between atoms: _44  and  _45
REMARK   16  A    between atoms: _44  and  _47
REMARK   17  A    between atoms: _47  and  _48
REMARK   18  A    between atoms: _54  and  _56
REMARK   19  A    between atoms: _56  and  _57
REMARK   20  A    between atoms: _56  and  _59
REMARK   21  A    between atoms: _59  and  _60
REMARK   22  A    between atoms: _63  and  _64
REMARK   23  A    between atoms: _69  and  _71
REMARK   24  A    between atoms: _71  and  _72
REMARK   25  A    between atoms: _71  and  _74
REMARK   26  A    between atoms: _74  and  _75
REMARK   27  A    between atoms: _80  and  _82
REMARK   28  A    between atoms: _82  and  _83
REMARK   29  A    between atoms: _82  and  _85
REMARK   30  A    between atoms: _85  and  _86
REMARK   31  A    between atoms: _91  and  _93
REMARK   32  A    between atoms: _93  and  _94
REMARK   33  A    between atoms: _97  and  _99
REMARK   34  A    between atoms: _99  and  _100
REMARK   35  A    between atoms: _99  and  _102
REMARK   36  A    between atoms: _102  and  _103
REMARK   37  A    between atoms: _108  and  _110
REMARK   38  A    between atoms: _110  and  _111
REMARK   39  A    between atoms: _110  and  _113
REMARK   40  A    between atoms: _113  and  _114
REMARK   41  A    between atoms: _117  and  _119
REMARK   42  A    between atoms: _119  and  _120
REMARK   43  A    between atoms: _119  and  _122
REMARK   44  A    between atoms: _122  and  _123
REMARK   45  A    between atoms: _123  and  _124
REMARK   46  A    between atoms: _129  and  _131
REMARK   47  A    between atoms: _131  and  _132
REMARK   48  A    between atoms: _131  and  _134
REMARK   49  A    between atoms: _134  and  _135
REMARK   50  A    between atoms: _141  and  _143
REMARK   51  A    between atoms: _154  and  _157
REMARK   52  A    between atoms: _157  and  _158
REMARK   53  A    between atoms: _166  and  _167
REMARK   54  A    between atoms: _175  and  _177
REMARK   55  A    between atoms: _177  and  _178
REMARK   56  A    between atoms: _177  and  _180
REMARK   57  A    between atoms: _180  and  _181
REMARK   58  A    between atoms: _181  and  _182
REMARK   59  A    between atoms: _185  and  _187
REMARK   60  A    between atoms: _187  and  _188
REMARK   61  A    between atoms: _187  and  _190
REMARK   62  A    between atoms: _190  and  _191
REMARK   63  A    between atoms: _196  and  _198
REMARK   64  A    between atoms: _198  and  _199
REMARK   65  A    between atoms: _198  and  _201
REMARK   66  A    between atoms: _201  and  _202
REMARK   67  A    between atoms: _202  and  _203
REMARK   68  A    between atoms: _206  and  _208
REMARK   69  A    between atoms: _208  and  _209
REMARK   70  A    between atoms: _208  and  _211
REMARK   71  A    between atoms: _211  and  _212
REMARK   72  A    between atoms: _215  and  _217
REMARK   73  A    between atoms: _217  and  _218
REMARK   74  A    between atoms: _217  and  _220
REMARK   75  A    between atoms: _220  and  _221
REMARK   76  A    between atoms: _222  and  ZN_456
REMARK   77  A    between atoms: _226  and  _228
REMARK   78  A    between atoms: _228  and  _229
REMARK   79  A    between atoms: _228  and  _231
REMARK   80  A    between atoms: _231  and  _232
REMARK   81  A    between atoms: _235  and  _237
REMARK   82  A    between atoms: _237  and  _238
REMARK   83  A    between atoms: _237  and  _240
REMARK   84  A    between atoms: _243  and  _245
REMARK   85  A    between atoms: _245  and  _246
REMARK   86  A    between atoms: _245  and  _248
REMARK   87  A    between atoms: _248  and  _249
REMARK   88  A    between atoms: _254  and  _256
REMARK   89  A    between atoms: _256  and  _257
REMARK   90  A    between atoms: _256  and  _259
REMARK   91  A    between atoms: _262  and  _264
REMARK   92  A    between atoms: _264  and  _265
REMARK   93  A    between atoms: _267  and  _269
REMARK   94  A    between atoms: _269  and  _270
REMARK   95  A    between atoms: _273  and  _275
REMARK   96  A    between atoms: _275  and  _276
REMARK   97  A    between atoms: _275  and  _278
REMARK   98  A    between atoms: _281  and  _283
REMARK   99  A    between atoms: _283  and  _284
REMARK  100  A    between atoms: _283  and  _286
REMARK  101  A    between atoms: _286  and  _287
REMARK  102  A    between atoms: _287  and  _288
REMARK  103  A    between atoms: _293  and  _295
REMARK  104  A    between atoms: _295  and  _296
REMARK  105  A    between atoms: _295  and  _298
REMARK  106  A    between atoms: _298  and  _299
REMARK  107  A    between atoms: _302  and  _304
REMARK  108  A    between atoms: _304  and  _305
REMARK  109  A    between atoms: _308  and  _310
REMARK  110  A    between atoms: _310  and  _311
REMARK  111  A    between atoms: _310  and  _313
REMARK  112  A    between atoms: _316  and  _318
REMARK  113  A    between atoms: _318  and  _319
REMARK  114  A    between atoms: _318  and  _321
REMARK  115  A    between atoms: _321  and  _322
REMARK  116  A    between atoms: _325  and  _327
REMARK  117  A    between atoms: _327  and  _328
REMARK  118  A    between atoms: _330  and  _332
REMARK  119  A    between atoms: _332  and  _333
REMARK  120  A    between atoms: _332  and  _335
REMARK  121  A    between atoms: _335  and  _336
REMARK  122  A    between atoms: _338  and  _340
REMARK  123  A    between atoms: _340  and  _341
REMARK  124  A    between atoms: _340  and  _343
REMARK  125  A    between atoms: _343  and  _344
REMARK  126  A    between atoms: _347  and  _349
REMARK  127  A    between atoms: _349  and  _350
REMARK  128  A    between atoms: _349  and  _352
REMARK  129  A    between atoms: _352  and  _353
REMARK  130  A    between atoms: _356  and  _358
REMARK  131  A    between atoms: _358  and  _359
REMARK  132  A    between atoms: _358  and  _361
REMARK  133  A    between atoms: _361  and  _362
REMARK  134  A    between atoms: _366  and  _367
REMARK  135  A    between atoms: _373  and  _374
REMARK  136  A    between atoms: _379  and  _381
REMARK  137  A    between atoms: _381  and  _382
REMARK  138  A    between atoms: _381  and  _384
REMARK  139  A    between atoms: _384  and  _385
REMARK  140  A    between atoms: _388  and  _390
REMARK  141  A    between atoms: _390  and  _391
REMARK  142  A    between atoms: _390  and  _393
REMARK  143  A    between atoms: _393  and  _394
REMARK  144  A    between atoms: _397  and  _399
REMARK  145  A    between atoms: _399  and  _400
REMARK  146  A    between atoms: _399  and  _402
REMARK  147  A    between atoms: _404  and  _406
REMARK  148  A    between atoms: _406  and  _407
REMARK  149  A    between atoms: _406  and  _409
REMARK  150  A    between atoms: _412  and  _414
REMARK  151  A    between atoms: _414  and  _415
REMARK  152  A    between atoms: _414  and  _417
REMARK  153  A    between atoms: _417  and  _418
REMARK  154  A    between atoms: _428  and  _430
REMARK  155  A    between atoms: _430  and  _431
REMARK  156  A    between atoms: _430  and  _433
REMARK  157  A    between atoms: _433  and  _434
REMARK  158  A    between atoms: _439  and  _441
REMARK  159  A    between atoms: _441  and  _442
REMARK  160  A    between atoms: _441  and  _444
REMARK  161  A    between atoms: _444  and  _445
REMARK  162  A    between atoms: _445  and  _446
REMARK  163  A    between atoms: _446  and  _447
REMARK                            x       y       z     vdW  Elec       q    Type
REMARK                         _______ _______ _______ _____ _____    ______ ____
ROOT
ATOM      1  O   HOH     1       5.461   7.437  20.033  0.00  0.00    +0.000 OA
ENDROOT
TORSDOF 0
REMARK  Name = ../refined-set-2016/1g4j/1g4j_pocket.pdb
REMARK  163 active torsions:
REMARK  status: ('A' for Active; 'I' for Inactive)
REMARK    1  A    between atoms: _1  and  _3
REMARK    2  A    between atoms: _3  and  _4
REMARK    3  A    between atoms: _3  and  _6
REMARK    4  A    between atoms: _6  and  _7
REMARK    5  A    between atoms: _12  and  _14
REMARK    6  A    between atoms: _14  and  _15
REMARK    7  A    between atoms: _14  and  _17
REMARK    8  A    between atoms: _17  and  _18
REMARK    9  A    between atoms: _28  and  _30
REMARK   10  A    between atoms: _30  and  _31
REMARK   11  A    between atoms: _30  and  _33
REMARK   12  A    between atoms: _33  and  _34
REMARK   13  A    between atoms: _39  and  _40
REMARK   14  A    between atoms: _42  and  _44
REMARK   15  A    between atoms: _44  and  _45
REMARK   16  A    between atoms: _44  and  _47
REMARK   17  A    between atoms: _47  and  _48
REMARK   18  A    between atoms: _54  and  _56
REMARK   19  A    between atoms: _56  and  _57
REMARK   20  A    between atoms: _56  and  _59
REMARK   21  A    between atoms: _59  and  _60
REMARK   22  A    between atoms: _63  and  _64
REMARK   23  A    between atoms: _69  and  _71
REMARK   24  A    between atoms: _71  and  _72
REMARK   25  A    between atoms: _71  and  _74
REMARK   26  A    between atoms: _74  and  _75
REMARK   27  A    between atoms: _80  and  _82
REMARK   28  A    between atoms: _82  and  _83
REMARK   29  A    between atoms: _82  and  _85
REMARK   30  A    between atoms: _85  and  _86
REMARK   31  A    between atoms: _91  and  _93
REMARK   32  A    between atoms: _93  and  _94
REMARK   33  A    between atoms: _97  and  _99
REMARK   34  A    between atoms: _99  and  _100
REMARK   35  A    between atoms: _99  and  _102
REMARK   36  A    between atoms: _102  and  _103
REMARK   37  A    between atoms: _108  and  _110
REMARK   38  A    between atoms: _110  and  _111
REMARK   39  A    between atoms: _110  and  _113
REMARK   40  A    between atoms: _113  and  _114
REMARK   41  A    between atoms: _117  and  _119
REMARK   42  A    between atoms: _119  and  _120
REMARK   43  A    between atoms: _119  and  _122
REMARK   44  A    between atoms: _122  and  _123
REMARK   45  A    between atoms: _123  and  _124
REMARK   46  A    between atoms: _129  and  _131
REMARK   47  A    between atoms: _131  and  _132
REMARK   48  A    between atoms: _131  and  _134
REMARK   49  A    between atoms: _134  and  _135
REMARK   50  A    between atoms: _141  and  _143
REMARK   51  A    between atoms: _154  and  _157
REMARK   52  A    between atoms: _157  and  _158
REMARK   53  A    between atoms: _166  and  _167
REMARK   54  A    between atoms: _175  and  _177
REMARK   55  A    between atoms: _177  and  _178
REMARK   56  A    between atoms: _177  and  _180
REMARK   57  A    between atoms: _180  and  _181
REMARK   58  A    between atoms: _181  and  _182
REMARK   59  A    between atoms: _185  and  _187
REMARK   60  A    between atoms: _187  and  _188
REMARK   61  A    between atoms: _187  and  _190
REMARK   62  A    between atoms: _190  and  _191
REMARK   63  A    between atoms: _196  and  _198
REMARK   64  A    between atoms: _198  and  _199
REMARK   65  A    between atoms: _198  and  _201
REMARK   66  A    between atoms: _201  and  _202
REMARK   67  A    between atoms: _202  and  _203
REMARK   68  A    between atoms: _206  and  _208
REMARK   69  A    between atoms: _208  and  _209
REMARK   70  A    between atoms: _208  and  _211
REMARK   71  A    between atoms: _211  and  _212
REMARK   72  A    between atoms: _215  and  _217
REMARK   73  A    between atoms: _217  and  _218
REMARK   74  A    between atoms: _217  and  _220
REMARK   75  A    between atoms: _220  and  _221
REMARK   76  A    between atoms: _222  and  ZN_456
REMARK   77  A    between atoms: _226  and  _228
REMARK   78  A    between atoms: _228  and  _229
REMARK   79  A    between atoms: _228  and  _231
REMARK   80  A    between atoms: _231  and  _232
REMARK   81  A    between atoms: _235  and  _237
REMARK   82  A    between atoms: _237  and  _238
REMARK   83  A    between atoms: _237  and  _240
REMARK   84  A    between atoms: _243  and  _245
REMARK   85  A    between atoms: _245  and  _246
REMARK   86  A    between atoms: _245  and  _248
REMARK   87  A    between atoms: _248  and  _249
REMARK   88  A    between atoms: _254  and  _256
REMARK   89  A    between atoms: _256  and  _257
REMARK   90  A    between atoms: _256  and  _259
REMARK   91  A    between atoms: _262  and  _264
REMARK   92  A    between atoms: _264  and  _265
REMARK   93  A    between atoms: _267  and  _269
REMARK   94  A    between atoms: _269  and  _270
REMARK   95  A    between atoms: _273  and  _275
REMARK   96  A    between atoms: _275  and  _276
REMARK   97  A    between atoms: _275  and  _278
REMARK   98  A    between atoms: _281  and  _283
REMARK   99  A    between atoms: _283  and  _284
REMARK  100  A    between atoms: _283  and  _286
REMARK  101  A    between atoms: _286  and  _287
REMARK  102  A    between atoms: _287  and  _288
REMARK  103  A    between atoms: _293  and  _295
REMARK  104  A    between atoms: _295  and  _296
REMARK  105  A    between atoms: _295  and  _298
REMARK  106  A    between atoms: _298  and  _299
REMARK  107  A    between atoms: _302  and  _304
REMARK  108  A    between atoms: _304  and  _305
REMARK  109  A    between atoms: _308  and  _310
REMARK  110  A    between atoms: _310  and  _311
REMARK  111  A    between atoms: _310  and  _313
REMARK  112  A    between atoms: _316  and  _318
REMARK  113  A    between atoms: _318  and  _319
REMARK  114  A    between atoms: _318  and  _321
REMARK  115  A    between atoms: _321  and  _322
REMARK  116  A    between atoms: _325  and  _327
REMARK  117  A    between atoms: _327  and  _328
REMARK  118  A    between atoms: _330  and  _332
REMARK  119  A    between atoms: _332  and  _333
REMARK  120  A    between atoms: _332  and  _335
REMARK  121  A    between atoms: _335  and  _336
REMARK  122  A    between atoms: _338  and  _340
REMARK  123  A    between atoms: _340  and  _341
REMARK  124  A    between atoms: _340  and  _343
REMARK  125  A    between atoms: _343  and  _344
REMARK  126  A    between atoms: _347  and  _349
REMARK  127  A    between atoms: _349  and  _350
REMARK  128  A    between atoms: _349  and  _352
REMARK  129  A    between atoms: _352  and  _353
REMARK  130  A    between atoms: _356  and  _358
REMARK  131  A    between atoms: _358  and  _359
REMARK  132  A    between atoms: _358  and  _361
REMARK  133  A    between atoms: _361  and  _362
REMARK  134  A    between atoms: _366  and  _367
REMARK  135  A    between atoms: _373  and  _374
REMARK  136  A    between atoms: _379  and  _381
REMARK  137  A    between atoms: _381  and  _382
REMARK  138  A    between atoms: _381  and  _384
REMARK  139  A    between atoms: _384  and  _385
REMARK  140  A    between atoms: _388  and  _390
REMARK  141  A    between atoms: _390  and  _391
REMARK  142  A    between atoms: _390  and  _393
REMARK  143  A    between atoms: _393  and  _394
REMARK  144  A    between atoms: _397  and  _399
REMARK  145  A    between atoms: _399  and  _400
REMARK  146  A    between atoms: _399  and  _402
REMARK  147  A    between atoms: _404  and  _406
REMARK  148  A    between atoms: _406  and  _407
REMARK  149  A    between atoms: _406  and  _409
REMARK  150  A    between atoms: _412  and  _414
REMARK  151  A    between atoms: _414  and  _415
REMARK  152  A    between atoms: _414  and  _417
REMARK  153  A    between atoms: _417  and  _418
REMARK  154  A    between atoms: _428  and  _430
REMARK  155  A    between atoms: _430  and  _431
REMARK  156  A    between atoms: _430  and  _433
REMARK  157  A    between atoms: _433  and  _434
REMARK  158  A    between atoms: _439  and  _441
REMARK  159  A    between atoms: _441  and  _442
REMARK  160  A    between atoms: _441  and  _444
REMARK  161  A    between atoms: _444  and  _445
REMARK  162  A    between atoms: _445  and  _446
REMARK  163  A    between atoms: _446  and  _447
REMARK                            x       y       z     vdW  Elec       q    Type
REMARK                         _______ _______ _______ _____ _____    ______ ____
ROOT
ATOM      1  O   HOH     1      -7.172   5.933   6.790  0.00  0.00    +0.000 OA
ENDROOT
TORSDOF 0
REMARK  Name = ../refined-set-2016/1g4j/1g4j_pocket.pdb
REMARK  163 active torsions:
REMARK  status: ('A' for Active; 'I' for Inactive)
REMARK    1  A    between atoms: _1  and  _3
REMARK    2  A    between atoms: _3  and  _4
REMARK    3  A    between atoms: _3  and  _6
REMARK    4  A    between atoms: _6  and  _7
REMARK    5  A    between atoms: _12  and  _14
REMARK    6  A    between atoms: _14  and  _15
REMARK    7  A    between atoms: _14  and  _17
REMARK    8  A    between atoms: _17  and  _18
REMARK    9  A    between atoms: _28  and  _30
REMARK   10  A    between atoms: _30  and  _31
REMARK   11  A    between atoms: _30  and  _33
REMARK   12  A    between atoms: _33  and  _34
REMARK   13  A    between atoms: _39  and  _40
REMARK   14  A    between atoms: _42  and  _44
REMARK   15  A    between atoms: _44  and  _45
REMARK   16  A    between atoms: _44  and  _47
REMARK   17  A    between atoms: _47  and  _48
REMARK   18  A    between atoms: _54  and  _56
REMARK   19  A    between atoms: _56  and  _57
REMARK   20  A    between atoms: _56  and  _59
REMARK   21  A    between atoms: _59  and  _60
REMARK   22  A    between atoms: _63  and  _64
REMARK   23  A    between atoms: _69  and  _71
REMARK   24  A    between atoms: _71  and  _72
REMARK   25  A    between atoms: _71  and  _74
REMARK   26  A    between atoms: _74  and  _75
REMARK   27  A    between atoms: _80  and  _82
REMARK   28  A    between atoms: _82  and  _83
REMARK   29  A    between atoms: _82  and  _85
REMARK   30  A    between atoms: _85  and  _86
REMARK   31  A    between atoms: _91  and  _93
REMARK   32  A    between atoms: _93  and  _94
REMARK   33  A    between atoms: _97  and  _99
REMARK   34  A    between atoms: _99  and  _100
REMARK   35  A    between atoms: _99  and  _102
REMARK   36  A    between atoms: _102  and  _103
REMARK   37  A    between atoms: _108  and  _110
REMARK   38  A    between atoms: _110  and  _111
REMARK   39  A    between atoms: _110  and  _113
REMARK   40  A    between atoms: _113  and  _114
REMARK   41  A    between atoms: _117  and  _119
REMARK   42  A    between atoms: _119  and  _120
REMARK   43  A    between atoms: _119  and  _122
REMARK   44  A    between atoms: _122  and  _123
REMARK   45  A    between atoms: _123  and  _124
REMARK   46  A    between atoms: _129  and  _131
REMARK   47  A    between atoms: _131  and  _132
REMARK   48  A    between atoms: _131  and  _134
REMARK   49  A    between atoms: _134  and  _135
REMARK   50  A    between atoms: _141  and  _143
REMARK   51  A    between atoms: _154  and  _157
REMARK   52  A    between atoms: _157  and  _158
REMARK   53  A    between atoms: _166  and  _167
REMARK   54  A    between atoms: _175  and  _177
REMARK   55  A    between atoms: _177  and  _178
REMARK   56  A    between atoms: _177  and  _180
REMARK   57  A    between atoms: _180  and  _181
REMARK   58  A    between atoms: _181  and  _182
REMARK   59  A    between atoms: _185  and  _187
REMARK   60  A    between atoms: _187  and  _188
REMARK   61  A    between atoms: _187  and  _190
REMARK   62  A    between atoms: _190  and  _191
REMARK   63  A    between atoms: _196  and  _198
REMARK   64  A    between atoms: _198  and  _199
REMARK   65  A    between atoms: _198  and  _201
REMARK   66  A    between atoms: _201  and  _202
REMARK   67  A    between atoms: _202  and  _203
REMARK   68  A    between atoms: _206  and  _208
REMARK   69  A    between atoms: _208  and  _209
REMARK   70  A    between atoms: _208  and  _211
REMARK   71  A    between atoms: _211  and  _212
REMARK   72  A    between atoms: _215  and  _217
REMARK   73  A    between atoms: _217  and  _218
REMARK   74  A    between atoms: _217  and  _220
REMARK   75  A    between atoms: _220  and  _221
REMARK   76  A    between atoms: _222  and  ZN_456
REMARK   77  A    between atoms: _226  and  _228
REMARK   78  A    between atoms: _228  and  _229
REMARK   79  A    between atoms: _228  and  _231
REMARK   80  A    between atoms: _231  and  _232
REMARK   81  A    between atoms: _235  and  _237
REMARK   82  A    between atoms: _237  and  _238
REMARK   83  A    between atoms: _237  and  _240
REMARK   84  A    between atoms: _243  and  _245
REMARK   85  A    between atoms: _245  and  _246
REMARK   86  A    between atoms: _245  and  _248
REMARK   87  A    between atoms: _248  and  _249
REMARK   88  A    between atoms: _254  and  _256
REMARK   89  A    between atoms: _256  and  _257
REMARK   90  A    between atoms: _256  and  _259
REMARK   91  A    between atoms: _262  and  _264
REMARK   92  A    between atoms: _264  and  _265
REMARK   93  A    between atoms: _267  and  _269
REMARK   94  A    between atoms: _269  and  _270
REMARK   95  A    between atoms: _273  and  _275
REMARK   96  A    between atoms: _275  and  _276
REMARK   97  A    between atoms: _275  and  _278
REMARK   98  A    between atoms: _281  and  _283
REMARK   99  A    between atoms: _283  and  _284
REMARK  100  A    between atoms: _283  and  _286
REMARK  101  A    between atoms: _286  and  _287
REMARK  102  A    between atoms: _287  and  _288
REMARK  103  A    between atoms: _293  and  _295
REMARK  104  A    between atoms: _295  and  _296
REMARK  105  A    between atoms: _295  and  _298
REMARK  106  A    between atoms: _298  and  _299
REMARK  107  A    between atoms: _302  and  _304
REMARK  108  A    between atoms: _304  and  _305
REMARK  109  A    between atoms: _308  and  _310
REMARK  110  A    between atoms: _310  and  _311
REMARK  111  A    between atoms: _310  and  _313
REMARK  112  A    between atoms: _316  and  _318
REMARK  113  A    between atoms: _318  and  _319
REMARK  114  A    between atoms: _318  and  _321
REMARK  115  A    between atoms: _321  and  _322
REMARK  116  A    between atoms: _325  and  _327
REMARK  117  A    between atoms: _327  and  _328
REMARK  118  A    between atoms: _330  and  _332
REMARK  119  A    between atoms: _332  and  _333
REMARK  120  A    between atoms: _332  and  _335
REMARK  121  A    between atoms: _335  and  _336
REMARK  122  A    between atoms: _338  and  _340
REMARK  123  A    between atoms: _340  and  _341
REMARK  124  A    between atoms: _340  and  _343
REMARK  125  A    between atoms: _343  and  _344
REMARK  126  A    between atoms: _347  and  _349
REMARK  127  A    between atoms: _349  and  _350
REMARK  128  A    between atoms: _349  and  _352
REMARK  129  A    between atoms: _352  and  _353
REMARK  130  A    between atoms: _356  and  _358
REMARK  131  A    between atoms: _358  and  _359
REMARK  132  A    between atoms: _358  and  _361
REMARK  133  A    between atoms: _361  and  _362
REMARK  134  A    between atoms: _366  and  _367
REMARK  135  A    between atoms: _373  and  _374
REMARK  136  A    between atoms: _379  and  _381
REMARK  137  A    between atoms: _381  and  _382
REMARK  138  A    between atoms: _381  and  _384
REMARK  139  A    between atoms: _384  and  _385
REMARK  140  A    between atoms: _388  and  _390
REMARK  141  A    between atoms: _390  and  _391
REMARK  142  A    between atoms: _390  and  _393
REMARK  143  A    between atoms: _393  and  _394
REMARK  144  A    between atoms: _397  and  _399
REMARK  145  A    between atoms: _399  and  _400
REMARK  146  A    between atoms: _399  and  _402
REMARK  147  A    between atoms: _404  and  _406
REMARK  148  A    between atoms: _406  and  _407
REMARK  149  A    between atoms: _406  and  _409
REMARK  150  A    between atoms: _412  and  _414
REMARK  151  A    between atoms: _414  and  _415
REMARK  152  A    between atoms: _414  and  _417
REMARK  153  A    between atoms: _417  and  _418
REMARK  154  A    between atoms: _428  and  _430
REMARK  155  A    between atoms: _430  and  _431
REMARK  156  A    between atoms: _430  and  _433
REMARK  157  A    between atoms: _433  and  _434
REMARK  158  A    between atoms: _439  and  _441
REMARK  159  A    between atoms: _441  and  _442
REMARK  160  A    between atoms: _441  and  _444
REMARK  161  A    between atoms: _444  and  _445
REMARK  162  A    between atoms: _445  and  _446
REMARK  163  A    between atoms: _446  and  _447
REMARK                            x       y       z     vdW  Elec       q    Type
REMARK                         _______ _______ _______ _____ _____    ______ ____
ROOT
ATOM      1  O   HOH     1      -1.363   2.884  10.322  0.00  0.00    +0.000 OA
ENDROOT
TORSDOF 0
REMARK  Name = ../refined-set-2016/1g4j/1g4j_pocket.pdb
REMARK  163 active torsions:
REMARK  status: ('A' for Active; 'I' for Inactive)
REMARK    1  A    between atoms: _1  and  _3
REMARK    2  A    between atoms: _3  and  _4
REMARK    3  A    between atoms: _3  and  _6
REMARK    4  A    between atoms: _6  and  _7
REMARK    5  A    between atoms: _12  and  _14
REMARK    6  A    between atoms: _14  and  _15
REMARK    7  A    between atoms: _14  and  _17
REMARK    8  A    between atoms: _17  and  _18
REMARK    9  A    between atoms: _28  and  _30
REMARK   10  A    between atoms: _30  and  _31
REMARK   11  A    between atoms: _30  and  _33
REMARK   12  A    between atoms: _33  and  _34
REMARK   13  A    between atoms: _39  and  _40
REMARK   14  A    between atoms: _42  and  _44
REMARK   15  A    between atoms: _44  and  _45
REMARK   16  A    between atoms: _44  and  _47
REMARK   17  A    between atoms: _47  and  _48
REMARK   18  A    between atoms: _54  and  _56
REMARK   19  A    between atoms: _56  and  _57
REMARK   20  A    between atoms: _56  and  _59
REMARK   21  A    between atoms: _59  and  _60
REMARK   22  A    between atoms: _63  and  _64
REMARK   23  A    between atoms: _69  and  _71
REMARK   24  A    between atoms: _71  and  _72
REMARK   25  A    between atoms: _71  and  _74
REMARK   26  A    between atoms: _74  and  _75
REMARK   27  A    between atoms: _80  and  _82
REMARK   28  A    between atoms: _82  and  _83
REMARK   29  A    between atoms: _82  and  _85
REMARK   30  A    between atoms: _85  and  _86
REMARK   31  A    between atoms: _91  and  _93
REMARK   32  A    between atoms: _93  and  _94
REMARK   33  A    between atoms: _97  and  _99
REMARK   34  A    between atoms: _99  and  _100
REMARK   35  A    between atoms: _99  and  _102
REMARK   36  A    between atoms: _102  and  _103
REMARK   37  A    between atoms: _108  and  _110
REMARK   38  A    between atoms: _110  and  _111
REMARK   39  A    between atoms: _110  and  _113
REMARK   40  A    between atoms: _113  and  _114
REMARK   41  A    between atoms: _117  and  _119
REMARK   42  A    between atoms: _119  and  _120
REMARK   43  A    between atoms: _119  and  _122
REMARK   44  A    between atoms: _122  and  _123
REMARK   45  A    between atoms: _123  and  _124
REMARK   46  A    between atoms: _129  and  _131
REMARK   47  A    between atoms: _131  and  _132
REMARK   48  A    between atoms: _131  and  _134
REMARK   49  A    between atoms: _134  and  _135
REMARK   50  A    between atoms: _141  and  _143
REMARK   51  A    between atoms: _154  and  _157
REMARK   52  A    between atoms: _157  and  _158
REMARK   53  A    between atoms: _166  and  _167
REMARK   54  A    between atoms: _175  and  _177
REMARK   55  A    between atoms: _177  and  _178
REMARK   56  A    between atoms: _177  and  _180
REMARK   57  A    between atoms: _180  and  _181
REMARK   58  A    between atoms: _181  and  _182
REMARK   59  A    between atoms: _185  and  _187
REMARK   60  A    between atoms: _187  and  _188
REMARK   61  A    between atoms: _187  and  _190
REMARK   62  A    between atoms: _190  and  _191
REMARK   63  A    between atoms: _196  and  _198
REMARK   64  A    between atoms: _198  and  _199
REMARK   65  A    between atoms: _198  and  _201
REMARK   66  A    between atoms: _201  and  _202
REMARK   67  A    between atoms: _202  and  _203
REMARK   68  A    between atoms: _206  and  _208
REMARK   69  A    between atoms: _208  and  _209
REMARK   70  A    between atoms: _208  and  _211
REMARK   71  A    between atoms: _211  and  _212
REMARK   72  A    between atoms: _215  and  _217
REMARK   73  A    between atoms: _217  and  _218
REMARK   74  A    between atoms: _217  and  _220
REMARK   75  A    between atoms: _220  and  _221
REMARK   76  A    between atoms: _222  and  ZN_456
REMARK   77  A    between atoms: _226  and  _228
REMARK   78  A    between atoms: _228  and  _229
REMARK   79  A    between atoms: _228  and  _231
REMARK   80  A    between atoms: _231  and  _232
REMARK   81  A    between atoms: _235  and  _237
REMARK   82  A    between atoms: _237  and  _238
REMARK   83  A    between atoms: _237  and  _240
REMARK   84  A    between atoms: _243  and  _245
REMARK   85  A    between atoms: _245  and  _246
REMARK   86  A    between atoms: _245  and  _248
REMARK   87  A    between atoms: _248  and  _249
REMARK   88  A    between atoms: _254  and  _256
REMARK   89  A    between atoms: _256  and  _257
REMARK   90  A    between atoms: _256  and  _259
REMARK   91  A    between atoms: _262  and  _264
REMARK   92  A    between atoms: _264  and  _265
REMARK   93  A    between atoms: _267  and  _269
REMARK   94  A    between atoms: _269  and  _270
REMARK   95  A    between atoms: _273  and  _275
REMARK   96  A    between atoms: _275  and  _276
REMARK   97  A    between atoms: _275  and  _278
REMARK   98  A    between atoms: _281  and  _283
REMARK   99  A    between atoms: _283  and  _284
REMARK  100  A    between atoms: _283  and  _286
REMARK  101  A    between atoms: _286  and  _287
REMARK  102  A    between atoms: _287  and  _288
REMARK  103  A    between atoms: _293  and  _295
REMARK  104  A    between atoms: _295  and  _296
REMARK  105  A    between atoms: _295  and  _298
REMARK  106  A    between atoms: _298  and  _299
REMARK  107  A    between atoms: _302  and  _304
REMARK  108  A    between atoms: _304  and  _305
REMARK  109  A    between atoms: _308  and  _310
REMARK  110  A    between atoms: _310  and  _311
REMARK  111  A    between atoms: _310  and  _313
REMARK  112  A    between atoms: _316  and  _318
REMARK  113  A    between atoms: _318  and  _319
REMARK  114  A    between atoms: _318  and  _321
REMARK  115  A    between atoms: _321  and  _322
REMARK  116  A    between atoms: _325  and  _327
REMARK  117  A    between atoms: _327  and  _328
REMARK  118  A    between atoms: _330  and  _332
REMARK  119  A    between atoms: _332  and  _333
REMARK  120  A    between atoms: _332  and  _335
REMARK  121  A    between atoms: _335  and  _336
REMARK  122  A    between atoms: _338  and  _340
REMARK  123  A    between atoms: _340  and  _341
REMARK  124  A    between atoms: _340  and  _343
REMARK  125  A    between atoms: _343  and  _344
REMARK  126  A    between atoms: _347  and  _349
REMARK  127  A    between atoms: _349  and  _350
REMARK  128  A    between atoms: _349  and  _352
REMARK  129  A    between atoms: _352  and  _353
REMARK  130  A    between atoms: _356  and  _358
REMARK  131  A    between atoms: _358  and  _359
REMARK  132  A    between atoms: _358  and  _361
REMARK  133  A    between atoms: _361  and  _362
REMARK  134  A    between atoms: _366  and  _367
REMARK  135  A    between atoms: _373  and  _374
REMARK  136  A    between atoms: _379  and  _381
REMARK  137  A    between atoms: _381  and  _382
REMARK  138  A    between atoms: _381  and  _384
REMARK  139  A    between atoms: _384  and  _385
REMARK  140  A    between atoms: _388  and  _390
REMARK  141  A    between atoms: _390  and  _391
REMARK  142  A    between atoms: _390  and  _393
REMARK  143  A    between atoms: _393  and  _394
REMARK  144  A    between atoms: _397  and  _399
REMARK  145  A    between atoms: _399  and  _400
REMARK  146  A    between atoms: _399  and  _402
REMARK  147  A    between atoms: _404  and  _406
REMARK  148  A    between atoms: _406  and  _407
REMARK  149  A    between atoms: _406  and  _409
REMARK  150  A    between atoms: _412  and  _414
REMARK  151  A    between atoms: _414  and  _415
REMARK  152  A    between atoms: _414  and  _417
REMARK  153  A    between atoms: _417  and  _418
REMARK  154  A    between atoms: _428  and  _430
REMARK  155  A    between atoms: _430  and  _431
REMARK  156  A    between atoms: _430  and  _433
REMARK  157  A    between atoms: _433  and  _434
REMARK  158  A    between atoms: _439  and  _441
REMARK  159  A    between atoms: _441  and  _442
REMARK  160  A    between atoms: _441  and  _444
REMARK  161  A    between atoms: _444  and  _445
REMARK  162  A    between atoms: _445  and  _446
REMARK  163  A    between atoms: _446  and  _447
REMARK                            x       y       z     vdW  Elec       q    Type
REMARK                         _______ _______ _______ _____ _____    ______ ____
ROOT
ATOM      1  O   HOH     1      -4.627   1.085  10.399  0.00  0.00    +0.000 OA
ENDROOT
TORSDOF 0
REMARK  Name = ../refined-set-2016/1g4j/1g4j_pocket.pdb
REMARK  163 active torsions:
REMARK  status: ('A' for Active; 'I' for Inactive)
REMARK    1  A    between atoms: _1  and  _3
REMARK    2  A    between atoms: _3  and  _4
REMARK    3  A    between atoms: _3  and  _6
REMARK    4  A    between atoms: _6  and  _7
REMARK    5  A    between atoms: _12  and  _14
REMARK    6  A    between atoms: _14  and  _15
REMARK    7  A    between atoms: _14  and  _17
REMARK    8  A    between atoms: _17  and  _18
REMARK    9  A    between atoms: _28  and  _30
REMARK   10  A    between atoms: _30  and  _31
REMARK   11  A    between atoms: _30  and  _33
REMARK   12  A    between atoms: _33  and  _34
REMARK   13  A    between atoms: _39  and  _40
REMARK   14  A    between atoms: _42  and  _44
REMARK   15  A    between atoms: _44  and  _45
REMARK   16  A    between atoms: _44  and  _47
REMARK   17  A    between atoms: _47  and  _48
REMARK   18  A    between atoms: _54  and  _56
REMARK   19  A    between atoms: _56  and  _57
REMARK   20  A    between atoms: _56  and  _59
REMARK   21  A    between atoms: _59  and  _60
REMARK   22  A    between atoms: _63  and  _64
REMARK   23  A    between atoms: _69  and  _71
REMARK   24  A    between atoms: _71  and  _72
REMARK   25  A    between atoms: _71  and  _74
REMARK   26  A    between atoms: _74  and  _75
REMARK   27  A    between atoms: _80  and  _82
REMARK   28  A    between atoms: _82  and  _83
REMARK   29  A    between atoms: _82  and  _85
REMARK   30  A    between atoms: _85  and  _86
REMARK   31  A    between atoms: _91  and  _93
REMARK   32  A    between atoms: _93  and  _94
REMARK   33  A    between atoms: _97  and  _99
REMARK   34  A    between atoms: _99  and  _100
REMARK   35  A    between atoms: _99  and  _102
REMARK   36  A    between atoms: _102  and  _103
REMARK   37  A    between atoms: _108  and  _110
REMARK   38  A    between atoms: _110  and  _111
REMARK   39  A    between atoms: _110  and  _113
REMARK   40  A    between atoms: _113  and  _114
REMARK   41  A    between atoms: _117  and  _119
REMARK   42  A    between atoms: _119  and  _120
REMARK   43  A    between atoms: _119  and  _122
REMARK   44  A    between atoms: _122  and  _123
REMARK   45  A    between atoms: _123  and  _124
REMARK   46  A    between atoms: _129  and  _131
REMARK   47  A    between atoms: _131  and  _132
REMARK   48  A    between atoms: _131  and  _134
REMARK   49  A    between atoms: _134  and  _135
REMARK   50  A    between atoms: _141  and  _143
REMARK   51  A    between atoms: _154  and  _157
REMARK   52  A    between atoms: _157  and  _158
REMARK   53  A    between atoms: _166  and  _167
REMARK   54  A    between atoms: _175  and  _177
REMARK   55  A    between atoms: _177  and  _178
REMARK   56  A    between atoms: _177  and  _180
REMARK   57  A    between atoms: _180  and  _181
REMARK   58  A    between atoms: _181  and  _182
REMARK   59  A    between atoms: _185  and  _187
REMARK   60  A    between atoms: _187  and  _188
REMARK   61  A    between atoms: _187  and  _190
REMARK   62  A    between atoms: _190  and  _191
REMARK   63  A    between atoms: _196  and  _198
REMARK   64  A    between atoms: _198  and  _199
REMARK   65  A    between atoms: _198  and  _201
REMARK   66  A    between atoms: _201  and  _202
REMARK   67  A    between atoms: _202  and  _203
REMARK   68  A    between atoms: _206  and  _208
REMARK   69  A    between atoms: _208  and  _209
REMARK   70  A    between atoms: _208  and  _211
REMARK   71  A    between atoms: _211  and  _212
REMARK   72  A    between atoms: _215  and  _217
REMARK   73  A    between atoms: _217  and  _218
REMARK   74  A    between atoms: _217  and  _220
REMARK   75  A    between atoms: _220  and  _221
REMARK   76  A    between atoms: _222  and  ZN_456
REMARK   77  A    between atoms: _226  and  _228
REMARK   78  A    between atoms: _228  and  _229
REMARK   79  A    between atoms: _228  and  _231
REMARK   80  A    between atoms: _231  and  _232
REMARK   81  A    between atoms: _235  and  _237
REMARK   82  A    between atoms: _237  and  _238
REMARK   83  A    between atoms: _237  and  _240
REMARK   84  A    between atoms: _243  and  _245
REMARK   85  A    between atoms: _245  and  _246
REMARK   86  A    between atoms: _245  and  _248
REMARK   87  A    between atoms: _248  and  _249
REMARK   88  A    between atoms: _254  and  _256
REMARK   89  A    between atoms: _256  and  _257
REMARK   90  A    between atoms: _256  and  _259
REMARK   91  A    between atoms: _262  and  _264
REMARK   92  A    between atoms: _264  and  _265
REMARK   93  A    between atoms: _267  and  _269
REMARK   94  A    between atoms: _269  and  _270
REMARK   95  A    between atoms: _273  and  _275
REMARK   96  A    between atoms: _275  and  _276
REMARK   97  A    between atoms: _275  and  _278
REMARK   98  A    between atoms: _281  and  _283
REMARK   99  A    between atoms: _283  and  _284
REMARK  100  A    between atoms: _283  and  _286
REMARK  101  A    between atoms: _286  and  _287
REMARK  102  A    between atoms: _287  and  _288
REMARK  103  A    between atoms: _293  and  _295
REMARK  104  A    between atoms: _295  and  _296
REMARK  105  A    between atoms: _295  and  _298
REMARK  106  A    between atoms: _298  and  _299
REMARK  107  A    between atoms: _302  and  _304
REMARK  108  A    between atoms: _304  and  _305
REMARK  109  A    between atoms: _308  and  _310
REMARK  110  A    between atoms: _310  and  _311
REMARK  111  A    between atoms: _310  and  _313
REMARK  112  A    between atoms: _316  and  _318
REMARK  113  A    between atoms: _318  and  _319
REMARK  114  A    between atoms: _318  and  _321
REMARK  115  A    between atoms: _321  and  _322
REMARK  116  A    between atoms: _325  and  _327
REMARK  117  A    between atoms: _327  and  _328
REMARK  118  A    between atoms: _330  and  _332
REMARK  119  A    between atoms: _332  and  _333
REMARK  120  A    between atoms: _332  and  _335
REMARK  121  A    between atoms: _335  and  _336
REMARK  122  A    between atoms: _338  and  _340
REMARK  123  A    between atoms: _340  and  _341
REMARK  124  A    between atoms: _340  and  _343
REMARK  125  A    between atoms: _343  and  _344
REMARK  126  A    between atoms: _347  and  _349
REMARK  127  A    between atoms: _349  and  _350
REMARK  128  A    between atoms: _349  and  _352
REMARK  129  A    between atoms: _352  and  _353
REMARK  130  A    between atoms: _356  and  _358
REMARK  131  A    between atoms: _358  and  _359
REMARK  132  A    between atoms: _358  and  _361
REMARK  133  A    between atoms: _361  and  _362
REMARK  134  A    between atoms: _366  and  _367
REMARK  135  A    between atoms: _373  and  _374
REMARK  136  A    between atoms: _379  and  _381
REMARK  137  A    between atoms: _381  and  _382
REMARK  138  A    between atoms: _381  and  _384
REMARK  139  A    between atoms: _384  and  _385
REMARK  140  A    between atoms: _388  and  _390
REMARK  141  A    between atoms: _390  and  _391
REMARK  142  A    between atoms: _390  and  _393
REMARK  143  A    between atoms: _393  and  _394
REMARK  144  A    between atoms: _397  and  _399
REMARK  145  A    between atoms: _399  and  _400
REMARK  146  A    between atoms: _399  and  _402
REMARK  147  A    between atoms: _404  and  _406
REMARK  148  A    between atoms: _406  and  _407
REMARK  149  A    between atoms: _406  and  _409
REMARK  150  A    between atoms: _412  and  _414
REMARK  151  A    between atoms: _414  and  _415
REMARK  152  A    between atoms: _414  and  _417
REMARK  153  A    between atoms: _417  and  _418
REMARK  154  A    between atoms: _428  and  _430
REMARK  155  A    between atoms: _430  and  _431
REMARK  156  A    between atoms: _430  and  _433
REMARK  157  A    between atoms: _433  and  _434
REMARK  158  A    between atoms: _439  and  _441
REMARK  159  A    between atoms: _441  and  _442
REMARK  160  A    between atoms: _441  and  _444
REMARK  161  A    between atoms: _444  and  _445
REMARK  162  A    between atoms: _445  and  _446
REMARK  163  A    between atoms: _446  and  _447
REMARK                            x       y       z     vdW  Elec       q    Type
REMARK                         _______ _______ _______ _____ _____    ______ ____
ROOT
ATOM      1  O   HOH     1      -4.063  11.291   8.371  0.00  0.00    +0.000 OA
ENDROOT
TORSDOF 0
REMARK  Name = ../refined-set-2016/1g4j/1g4j_pocket.pdb
REMARK  163 active torsions:
REMARK  status: ('A' for Active; 'I' for Inactive)
REMARK    1  A    between atoms: _1  and  _3
REMARK    2  A    between atoms: _3  and  _4
REMARK    3  A    between atoms: _3  and  _6
REMARK    4  A    between atoms: _6  and  _7
REMARK    5  A    between atoms: _12  and  _14
REMARK    6  A    between atoms: _14  and  _15
REMARK    7  A    between atoms: _14  and  _17
REMARK    8  A    between atoms: _17  and  _18
REMARK    9  A    between atoms: _28  and  _30
REMARK   10  A    between atoms: _30  and  _31
REMARK   11  A    between atoms: _30  and  _33
REMARK   12  A    between atoms: _33  and  _34
REMARK   13  A    between atoms: _39  and  _40
REMARK   14  A    between atoms: _42  and  _44
REMARK   15  A    between atoms: _44  and  _45
REMARK   16  A    between atoms: _44  and  _47
REMARK   17  A    between atoms: _47  and  _48
REMARK   18  A    between atoms: _54  and  _56
REMARK   19  A    between atoms: _56  and  _57
REMARK   20  A    between atoms: _56  and  _59
REMARK   21  A    between atoms: _59  and  _60
REMARK   22  A    between atoms: _63  and  _64
REMARK   23  A    between atoms: _69  and  _71
REMARK   24  A    between atoms: _71  and  _72
REMARK   25  A    between atoms: _71  and  _74
REMARK   26  A    between atoms: _74  and  _75
REMARK   27  A    between atoms: _80  and  _82
REMARK   28  A    between atoms: _82  and  _83
REMARK   29  A    between atoms: _82  and  _85
REMARK   30  A    between atoms: _85  and  _86
REMARK   31  A    between atoms: _91  and  _93
REMARK   32  A    between atoms: _93  and  _94
REMARK   33  A    between atoms: _97  and  _99
REMARK   34  A    between atoms: _99  and  _100
REMARK   35  A    between atoms: _99  and  _102
REMARK   36  A    between atoms: _102  and  _103
REMARK   37  A    between atoms: _108  and  _110
REMARK   38  A    between atoms: _110  and  _111
REMARK   39  A    between atoms: _110  and  _113
REMARK   40  A    between atoms: _113  and  _114
REMARK   41  A    between atoms: _117  and  _119
REMARK   42  A    between atoms: _119  and  _120
REMARK   43  A    between atoms: _119  and  _122
REMARK   44  A    between atoms: _122  and  _123
REMARK   45  A    between atoms: _123  and  _124
REMARK   46  A    between atoms: _129  and  _131
REMARK   47  A    between atoms: _131  and  _132
REMARK   48  A    between atoms: _131  and  _134
REMARK   49  A    between atoms: _134  and  _135
REMARK   50  A    between atoms: _141  and  _143
REMARK   51  A    between atoms: _154  and  _157
REMARK   52  A    between atoms: _157  and  _158
REMARK   53  A    between atoms: _166  and  _167
REMARK   54  A    between atoms: _175  and  _177
REMARK   55  A    between atoms: _177  and  _178
REMARK   56  A    between atoms: _177  and  _180
REMARK   57  A    between atoms: _180  and  _181
REMARK   58  A    between atoms: _181  and  _182
REMARK   59  A    between atoms: _185  and  _187
REMARK   60  A    between atoms: _187  and  _188
REMARK   61  A    between atoms: _187  and  _190
REMARK   62  A    between atoms: _190  and  _191
REMARK   63  A    between atoms: _196  and  _198
REMARK   64  A    between atoms: _198  and  _199
REMARK   65  A    between atoms: _198  and  _201
REMARK   66  A    between atoms: _201  and  _202
REMARK   67  A    between atoms: _202  and  _203
REMARK   68  A    between atoms: _206  and  _208
REMARK   69  A    between atoms: _208  and  _209
REMARK   70  A    between atoms: _208  and  _211
REMARK   71  A    between atoms: _211  and  _212
REMARK   72  A    between atoms: _215  and  _217
REMARK   73  A    between atoms: _217  and  _218
REMARK   74  A    between atoms: _217  and  _220
REMARK   75  A    between atoms: _220  and  _221
REMARK   76  A    between atoms: _222  and  ZN_456
REMARK   77  A    between atoms: _226  and  _228
REMARK   78  A    between atoms: _228  and  _229
REMARK   79  A    between atoms: _228  and  _231
REMARK   80  A    between atoms: _231  and  _232
REMARK   81  A    between atoms: _235  and  _237
REMARK   82  A    between atoms: _237  and  _238
REMARK   83  A    between atoms: _237  and  _240
REMARK   84  A    between atoms: _243  and  _245
REMARK   85  A    between atoms: _245  and  _246
REMARK   86  A    between atoms: _245  and  _248
REMARK   87  A    between atoms: _248  and  _249
REMARK   88  A    between atoms: _254  and  _256
REMARK   89  A    between atoms: _256  and  _257
REMARK   90  A    between atoms: _256  and  _259
REMARK   91  A    between atoms: _262  and  _264
REMARK   92  A    between atoms: _264  and  _265
REMARK   93  A    between atoms: _267  and  _269
REMARK   94  A    between atoms: _269  and  _270
REMARK   95  A    between atoms: _273  and  _275
REMARK   96  A    between atoms: _275  and  _276
REMARK   97  A    between atoms: _275  and  _278
REMARK   98  A    between atoms: _281  and  _283
REMARK   99  A    between atoms: _283  and  _284
REMARK  100  A    between atoms: _283  and  _286
REMARK  101  A    between atoms: _286  and  _287
REMARK  102  A    between atoms: _287  and  _288
REMARK  103  A    between atoms: _293  and  _295
REMARK  104  A    between atoms: _295  and  _296
REMARK  105  A    between atoms: _295  and  _298
REMARK  106  A    between atoms: _298  and  _299
REMARK  107  A    between atoms: _302  and  _304
REMARK  108  A    between atoms: _304  and  _305
REMARK  109  A    between atoms: _308  and  _310
REMARK  110  A    between atoms: _310  and  _311
REMARK  111  A    between atoms: _310  and  _313
REMARK  112  A    between atoms: _316  and  _318
REMARK  113  A    between atoms: _318  and  _319
REMARK  114  A    between atoms: _318  and  _321
REMARK  115  A    between atoms: _321  and  _322
REMARK  116  A    between atoms: _325  and  _327
REMARK  117  A    between atoms: _327  and  _328
REMARK  118  A    between atoms: _330  and  _332
REMARK  119  A    between atoms: _332  and  _333
REMARK  120  A    between atoms: _332  and  _335
REMARK  121  A    between atoms: _335  and  _336
REMARK  122  A    between atoms: _338  and  _340
REMARK  123  A    between atoms: _340  and  _341
REMARK  124  A    between atoms: _340  and  _343
REMARK  125  A    between atoms: _343  and  _344
REMARK  126  A    between atoms: _347  and  _349
REMARK  127  A    between atoms: _349  and  _350
REMARK  128  A    between atoms: _349  and  _352
REMARK  129  A    between atoms: _352  and  _353
REMARK  130  A    between atoms: _356  and  _358
REMARK  131  A    between atoms: _358  and  _359
REMARK  132  A    between atoms: _358  and  _361
REMARK  133  A    between atoms: _361  and  _362
REMARK  134  A    between atoms: _366  and  _367
REMARK  135  A    between atoms: _373  and  _374
REMARK  136  A    between atoms: _379  and  _381
REMARK  137  A    between atoms: _381  and  _382
REMARK  138  A    between atoms: _381  and  _384
REMARK  139  A    between atoms: _384  and  _385
REMARK  140  A    between atoms: _388  and  _390
REMARK  141  A    between atoms: _390  and  _391
REMARK  142  A    between atoms: _390  and  _393
REMARK  143  A    between atoms: _393  and  _394
REMARK  144  A    between atoms: _397  and  _399
REMARK  145  A    between atoms: _399  and  _400
REMARK  146  A    between atoms: _399  and  _402
REMARK  147  A    between atoms: _404  and  _406
REMARK  148  A    between atoms: _406  and  _407
REMARK  149  A    between atoms: _406  and  _409
REMARK  150  A    between atoms: _412  and  _414
REMARK  151  A    between atoms: _414  and  _415
REMARK  152  A    between atoms: _414  and  _417
REMARK  153  A    between atoms: _417  and  _418
REMARK  154  A    between atoms: _428  and  _430
REMARK  155  A    between atoms: _430  and  _431
REMARK  156  A    between atoms: _430  and  _433
REMARK  157  A    between atoms: _433  and  _434
REMARK  158  A    between atoms: _439  and  _441
REMARK  159  A    between atoms: _441  and  _442
REMARK  160  A    between atoms: _441  and  _444
REMARK  161  A    between atoms: _444  and  _445
REMARK  162  A    between atoms: _445  and  _446
REMARK  163  A    between atoms: _446  and  _447
REMARK                            x       y       z     vdW  Elec       q    Type
REMARK                         _______ _______ _______ _____ _____    ______ ____
ROOT
ATOM      1  O   HOH     1      -3.670   7.585   6.098  0.00  0.00    +0.000 OA
ENDROOT
TORSDOF 0
REMARK  Name = ../refined-set-2016/1g4j/1g4j_pocket.pdb
REMARK  163 active torsions:
REMARK  status: ('A' for Active; 'I' for Inactive)
REMARK    1  A    between atoms: _1  and  _3
REMARK    2  A    between atoms: _3  and  _4
REMARK    3  A    between atoms: _3  and  _6
REMARK    4  A    between atoms: _6  and  _7
REMARK    5  A    between atoms: _12  and  _14
REMARK    6  A    between atoms: _14  and  _15
REMARK    7  A    between atoms: _14  and  _17
REMARK    8  A    between atoms: _17  and  _18
REMARK    9  A    between atoms: _28  and  _30
REMARK   10  A    between atoms: _30  and  _31
REMARK   11  A    between atoms: _30  and  _33
REMARK   12  A    between atoms: _33  and  _34
REMARK   13  A    between atoms: _39  and  _40
REMARK   14  A    between atoms: _42  and  _44
REMARK   15  A    between atoms: _44  and  _45
REMARK   16  A    between atoms: _44  and  _47
REMARK   17  A    between atoms: _47  and  _48
REMARK   18  A    between atoms: _54  and  _56
REMARK   19  A    between atoms: _56  and  _57
REMARK   20  A    between atoms: _56  and  _59
REMARK   21  A    between atoms: _59  and  _60
REMARK   22  A    between atoms: _63  and  _64
REMARK   23  A    between atoms: _69  and  _71
REMARK   24  A    between atoms: _71  and  _72
REMARK   25  A    between atoms: _71  and  _74
REMARK   26  A    between atoms: _74  and  _75
REMARK   27  A    between atoms: _80  and  _82
REMARK   28  A    between atoms: _82  and  _83
REMARK   29  A    between atoms: _82  and  _85
REMARK   30  A    between atoms: _85  and  _86
REMARK   31  A    between atoms: _91  and  _93
REMARK   32  A    between atoms: _93  and  _94
REMARK   33  A    between atoms: _97  and  _99
REMARK   34  A    between atoms: _99  and  _100
REMARK   35  A    between atoms: _99  and  _102
REMARK   36  A    between atoms: _102  and  _103
REMARK   37  A    between atoms: _108  and  _110
REMARK   38  A    between atoms: _110  and  _111
REMARK   39  A    between atoms: _110  and  _113
REMARK   40  A    between atoms: _113  and  _114
REMARK   41  A    between atoms: _117  and  _119
REMARK   42  A    between atoms: _119  and  _120
REMARK   43  A    between atoms: _119  and  _122
REMARK   44  A    between atoms: _122  and  _123
REMARK   45  A    between atoms: _123  and  _124
REMARK   46  A    between atoms: _129  and  _131
REMARK   47  A    between atoms: _131  and  _132
REMARK   48  A    between atoms: _131  and  _134
REMARK   49  A    between atoms: _134  and  _135
REMARK   50  A    between atoms: _141  and  _143
REMARK   51  A    between atoms: _154  and  _157
REMARK   52  A    between atoms: _157  and  _158
REMARK   53  A    between atoms: _166  and  _167
REMARK   54  A    between atoms: _175  and  _177
REMARK   55  A    between atoms: _177  and  _178
REMARK   56  A    between atoms: _177  and  _180
REMARK   57  A    between atoms: _180  and  _181
REMARK   58  A    between atoms: _181  and  _182
REMARK   59  A    between atoms: _185  and  _187
REMARK   60  A    between atoms: _187  and  _188
REMARK   61  A    between atoms: _187  and  _190
REMARK   62  A    between atoms: _190  and  _191
REMARK   63  A    between atoms: _196  and  _198
REMARK   64  A    between atoms: _198  and  _199
REMARK   65  A    between atoms: _198  and  _201
REMARK   66  A    between atoms: _201  and  _202
REMARK   67  A    between atoms: _202  and  _203
REMARK   68  A    between atoms: _206  and  _208
REMARK   69  A    between atoms: _208  and  _209
REMARK   70  A    between atoms: _208  and  _211
REMARK   71  A    between atoms: _211  and  _212
REMARK   72  A    between atoms: _215  and  _217
REMARK   73  A    between atoms: _217  and  _218
REMARK   74  A    between atoms: _217  and  _220
REMARK   75  A    between atoms: _220  and  _221
REMARK   76  A    between atoms: _222  and  ZN_456
REMARK   77  A    between atoms: _226  and  _228
REMARK   78  A    between atoms: _228  and  _229
REMARK   79  A    between atoms: _228  and  _231
REMARK   80  A    between atoms: _231  and  _232
REMARK   81  A    between atoms: _235  and  _237
REMARK   82  A    between atoms: _237  and  _238
REMARK   83  A    between atoms: _237  and  _240
REMARK   84  A    between atoms: _243  and  _245
REMARK   85  A    between atoms: _245  and  _246
REMARK   86  A    between atoms: _245  and  _248
REMARK   87  A    between atoms: _248  and  _249
REMARK   88  A    between atoms: _254  and  _256
REMARK   89  A    between atoms: _256  and  _257
REMARK   90  A    between atoms: _256  and  _259
REMARK   91  A    between atoms: _262  and  _264
REMARK   92  A    between atoms: _264  and  _265
REMARK   93  A    between atoms: _267  and  _269
REMARK   94  A    between atoms: _269  and  _270
REMARK   95  A    between atoms: _273  and  _275
REMARK   96  A    between atoms: _275  and  _276
REMARK   97  A    between atoms: _275  and  _278
REMARK   98  A    between atoms: _281  and  _283
REMARK   99  A    between atoms: _283  and  _284
REMARK  100  A    between atoms: _283  and  _286
REMARK  101  A    between atoms: _286  and  _287
REMARK  102  A    between atoms: _287  and  _288
REMARK  103  A    between atoms: _293  and  _295
REMARK  104  A    between atoms: _295  and  _296
REMARK  105  A    between atoms: _295  and  _298
REMARK  106  A    between atoms: _298  and  _299
REMARK  107  A    between atoms: _302  and  _304
REMARK  108  A    between atoms: _304  and  _305
REMARK  109  A    between atoms: _308  and  _310
REMARK  110  A    between atoms: _310  and  _311
REMARK  111  A    between atoms: _310  and  _313
REMARK  112  A    between atoms: _316  and  _318
REMARK  113  A    between atoms: _318  and  _319
REMARK  114  A    between atoms: _318  and  _321
REMARK  115  A    between atoms: _321  and  _322
REMARK  116  A    between atoms: _325  and  _327
REMARK  117  A    between atoms: _327  and  _328
REMARK  118  A    between atoms: _330  and  _332
REMARK  119  A    between atoms: _332  and  _333
REMARK  120  A    between atoms: _332  and  _335
REMARK  121  A    between atoms: _335  and  _336
REMARK  122  A    between atoms: _338  and  _340
REMARK  123  A    between atoms: _340  and  _341
REMARK  124  A    between atoms: _340  and  _343
REMARK  125  A    between atoms: _343  and  _344
REMARK  126  A    between atoms: _347  and  _349
REMARK  127  A    between atoms: _349  and  _350
REMARK  128  A    between atoms: _349  and  _352
REMARK  129  A    between atoms: _352  and  _353
REMARK  130  A    between atoms: _356  and  _358
REMARK  131  A    between atoms: _358  and  _359
REMARK  132  A    between atoms: _358  and  _361
REMARK  133  A    between atoms: _361  and  _362
REMARK  134  A    between atoms: _366  and  _367
REMARK  135  A    between atoms: _373  and  _374
REMARK  136  A    between atoms: _379  and  _381
REMARK  137  A    between atoms: _381  and  _382
REMARK  138  A    between atoms: _381  and  _384
REMARK  139  A    between atoms: _384  and  _385
REMARK  140  A    between atoms: _388  and  _390
REMARK  141  A    between atoms: _390  and  _391
REMARK  142  A    between atoms: _390  and  _393
REMARK  143  A    between atoms: _393  and  _394
REMARK  144  A    between atoms: _397  and  _399
REMARK  145  A    between atoms: _399  and  _400
REMARK  146  A    between atoms: _399  and  _402
REMARK  147  A    between atoms: _404  and  _406
REMARK  148  A    between atoms: _406  and  _407
REMARK  149  A    between atoms: _406  and  _409
REMARK  150  A    between atoms: _412  and  _414
REMARK  151  A    between atoms: _414  and  _415
REMARK  152  A    between atoms: _414  and  _417
REMARK  153  A    between atoms: _417  and  _418
REMARK  154  A    between atoms: _428  and  _430
REMARK  155  A    between atoms: _430  and  _431
REMARK  156  A    between atoms: _430  and  _433
REMARK  157  A    between atoms: _433  and  _434
REMARK  158  A    between atoms: _439  and  _441
REMARK  159  A    between atoms: _441  and  _442
REMARK  160  A    between atoms: _441  and  _444
REMARK  161  A    between atoms: _444  and  _445
REMARK  162  A    between atoms: _445  and  _446
REMARK  163  A    between atoms: _446  and  _447
REMARK                            x       y       z     vdW  Elec       q    Type
REMARK                         _______ _______ _______ _____ _____    ______ ____
ROOT
ATOM      1  O   HOH     1      -2.613  -3.089  11.707  0.00  0.00    +0.000 OA
ENDROOT
TORSDOF 0
REMARK  Name = ../refined-set-2016/1g4j/1g4j_pocket.pdb
REMARK  163 active torsions:
REMARK  status: ('A' for Active; 'I' for Inactive)
REMARK    1  A    between atoms: _1  and  _3
REMARK    2  A    between atoms: _3  and  _4
REMARK    3  A    between atoms: _3  and  _6
REMARK    4  A    between atoms: _6  and  _7
REMARK    5  A    between atoms: _12  and  _14
REMARK    6  A    between atoms: _14  and  _15
REMARK    7  A    between atoms: _14  and  _17
REMARK    8  A    between atoms: _17  and  _18
REMARK    9  A    between atoms: _28  and  _30
REMARK   10  A    between atoms: _30  and  _31
REMARK   11  A    between atoms: _30  and  _33
REMARK   12  A    between atoms: _33  and  _34
REMARK   13  A    between atoms: _39  and  _40
REMARK   14  A    between atoms: _42  and  _44
REMARK   15  A    between atoms: _44  and  _45
REMARK   16  A    between atoms: _44  and  _47
REMARK   17  A    between atoms: _47  and  _48
REMARK   18  A    between atoms: _54  and  _56
REMARK   19  A    between atoms: _56  and  _57
REMARK   20  A    between atoms: _56  and  _59
REMARK   21  A    between atoms: _59  and  _60
REMARK   22  A    between atoms: _63  and  _64
REMARK   23  A    between atoms: _69  and  _71
REMARK   24  A    between atoms: _71  and  _72
REMARK   25  A    between atoms: _71  and  _74
REMARK   26  A    between atoms: _74  and  _75
REMARK   27  A    between atoms: _80  and  _82
REMARK   28  A    between atoms: _82  and  _83
REMARK   29  A    between atoms: _82  and  _85
REMARK   30  A    between atoms: _85  and  _86
REMARK   31  A    between atoms: _91  and  _93
REMARK   32  A    between atoms: _93  and  _94
REMARK   33  A    between atoms: _97  and  _99
REMARK   34  A    between atoms: _99  and  _100
REMARK   35  A    between atoms: _99  and  _102
REMARK   36  A    between atoms: _102  and  _103
REMARK   37  A    between atoms: _108  and  _110
REMARK   38  A    between atoms: _110  and  _111
REMARK   39  A    between atoms: _110  and  _113
REMARK   40  A    between atoms: _113  and  _114
REMARK   41  A    between atoms: _117  and  _119
REMARK   42  A    between atoms: _119  and  _120
REMARK   43  A    between atoms: _119  and  _122
REMARK   44  A    between atoms: _122  and  _123
REMARK   45  A    between atoms: _123  and  _124
REMARK   46  A    between atoms: _129  and  _131
REMARK   47  A    between atoms: _131  and  _132
REMARK   48  A    between atoms: _131  and  _134
REMARK   49  A    between atoms: _134  and  _135
REMARK   50  A    between atoms: _141  and  _143
REMARK   51  A    between atoms: _154  and  _157
REMARK   52  A    between atoms: _157  and  _158
REMARK   53  A    between atoms: _166  and  _167
REMARK   54  A    between atoms: _175  and  _177
REMARK   55  A    between atoms: _177  and  _178
REMARK   56  A    between atoms: _177  and  _180
REMARK   57  A    between atoms: _180  and  _181
REMARK   58  A    between atoms: _181  and  _182
REMARK   59  A    between atoms: _185  and  _187
REMARK   60  A    between atoms: _187  and  _188
REMARK   61  A    between atoms: _187  and  _190
REMARK   62  A    between atoms: _190  and  _191
REMARK   63  A    between atoms: _196  and  _198
REMARK   64  A    between atoms: _198  and  _199
REMARK   65  A    between atoms: _198  and  _201
REMARK   66  A    between atoms: _201  and  _202
REMARK   67  A    between atoms: _202  and  _203
REMARK   68  A    between atoms: _206  and  _208
REMARK   69  A    between atoms: _208  and  _209
REMARK   70  A    between atoms: _208  and  _211
REMARK   71  A    between atoms: _211  and  _212
REMARK   72  A    between atoms: _215  and  _217
REMARK   73  A    between atoms: _217  and  _218
REMARK   74  A    between atoms: _217  and  _220
REMARK   75  A    between atoms: _220  and  _221
REMARK   76  A    between atoms: _222  and  ZN_456
REMARK   77  A    between atoms: _226  and  _228
REMARK   78  A    between atoms: _228  and  _229
REMARK   79  A    between atoms: _228  and  _231
REMARK   80  A    between atoms: _231  and  _232
REMARK   81  A    between atoms: _235  and  _237
REMARK   82  A    between atoms: _237  and  _238
REMARK   83  A    between atoms: _237  and  _240
REMARK   84  A    between atoms: _243  and  _245
REMARK   85  A    between atoms: _245  and  _246
REMARK   86  A    between atoms: _245  and  _248
REMARK   87  A    between atoms: _248  and  _249
REMARK   88  A    between atoms: _254  and  _256
REMARK   89  A    between atoms: _256  and  _257
REMARK   90  A    between atoms: _256  and  _259
REMARK   91  A    between atoms: _262  and  _264
REMARK   92  A    between atoms: _264  and  _265
REMARK   93  A    between atoms: _267  and  _269
REMARK   94  A    between atoms: _269  and  _270
REMARK   95  A    between atoms: _273  and  _275
REMARK   96  A    between atoms: _275  and  _276
REMARK   97  A    between atoms: _275  and  _278
REMARK   98  A    between atoms: _281  and  _283
REMARK   99  A    between atoms: _283  and  _284
REMARK  100  A    between atoms: _283  and  _286
REMARK  101  A    between atoms: _286  and  _287
REMARK  102  A    between atoms: _287  and  _288
REMARK  103  A    between atoms: _293  and  _295
REMARK  104  A    between atoms: _295  and  _296
REMARK  105  A    between atoms: _295  and  _298
REMARK  106  A    between atoms: _298  and  _299
REMARK  107  A    between atoms: _302  and  _304
REMARK  108  A    between atoms: _304  and  _305
REMARK  109  A    between atoms: _308  and  _310
REMARK  110  A    between atoms: _310  and  _311
REMARK  111  A    between atoms: _310  and  _313
REMARK  112  A    between atoms: _316  and  _318
REMARK  113  A    between atoms: _318  and  _319
REMARK  114  A    between atoms: _318  and  _321
REMARK  115  A    between atoms: _321  and  _322
REMARK  116  A    between atoms: _325  and  _327
REMARK  117  A    between atoms: _327  and  _328
REMARK  118  A    between atoms: _330  and  _332
REMARK  119  A    between atoms: _332  and  _333
REMARK  120  A    between atoms: _332  and  _335
REMARK  121  A    between atoms: _335  and  _336
REMARK  122  A    between atoms: _338  and  _340
REMARK  123  A    between atoms: _340  and  _341
REMARK  124  A    between atoms: _340  and  _343
REMARK  125  A    between atoms: _343  and  _344
REMARK  126  A    between atoms: _347  and  _349
REMARK  127  A    between atoms: _349  and  _350
REMARK  128  A    between atoms: _349  and  _352
REMARK  129  A    between atoms: _352  and  _353
REMARK  130  A    between atoms: _356  and  _358
REMARK  131  A    between atoms: _358  and  _359
REMARK  132  A    between atoms: _358  and  _361
REMARK  133  A    between atoms: _361  and  _362
REMARK  134  A    between atoms: _366  and  _367
REMARK  135  A    between atoms: _373  and  _374
REMARK  136  A    between atoms: _379  and  _381
REMARK  137  A    between atoms: _381  and  _382
REMARK  138  A    between atoms: _381  and  _384
REMARK  139  A    between atoms: _384  and  _385
REMARK  140  A    between atoms: _388  and  _390
REMARK  141  A    between atoms: _390  and  _391
REMARK  142  A    between atoms: _390  and  _393
REMARK  143  A    between atoms: _393  and  _394
REMARK  144  A    between atoms: _397  and  _399
REMARK  145  A    between atoms: _399  and  _400
REMARK  146  A    between atoms: _399  and  _402
REMARK  147  A    between atoms: _404  and  _406
REMARK  148  A    between atoms: _406  and  _407
REMARK  149  A    between atoms: _406  and  _409
REMARK  150  A    between atoms: _412  and  _414
REMARK  151  A    between atoms: _414  and  _415
REMARK  152  A    between atoms: _414  and  _417
REMARK  153  A    between atoms: _417  and  _418
REMARK  154  A    between atoms: _428  and  _430
REMARK  155  A    between atoms: _430  and  _431
REMARK  156  A    between atoms: _430  and  _433
REMARK  157  A    between atoms: _433  and  _434
REMARK  158  A    between atoms: _439  and  _441
REMARK  159  A    between atoms: _441  and  _442
REMARK  160  A    between atoms: _441  and  _444
REMARK  161  A    between atoms: _444  and  _445
REMARK  162  A    between atoms: _445  and  _446
REMARK  163  A    between atoms: _446  and  _447
REMARK                            x       y       z     vdW  Elec       q    Type
REMARK                         _______ _______ _______ _____ _____    ______ ____
ROOT
ATOM      1  O   HOH     1     -10.130   9.009  16.015  0.00  0.00    +0.000 OA
ENDROOT
TORSDOF 0
REMARK  Name = ../refined-set-2016/1g4j/1g4j_pocket.pdb
REMARK  163 active torsions:
REMARK  status: ('A' for Active; 'I' for Inactive)
REMARK    1  A    between atoms: _1  and  _3
REMARK    2  A    between atoms: _3  and  _4
REMARK    3  A    between atoms: _3  and  _6
REMARK    4  A    between atoms: _6  and  _7
REMARK    5  A    between atoms: _12  and  _14
REMARK    6  A    between atoms: _14  and  _15
REMARK    7  A    between atoms: _14  and  _17
REMARK    8  A    between atoms: _17  and  _18
REMARK    9  A    between atoms: _28  and  _30
REMARK   10  A    between atoms: _30  and  _31
REMARK   11  A    between atoms: _30  and  _33
REMARK   12  A    between atoms: _33  and  _34
REMARK   13  A    between atoms: _39  and  _40
REMARK   14  A    between atoms: _42  and  _44
REMARK   15  A    between atoms: _44  and  _45
REMARK   16  A    between atoms: _44  and  _47
REMARK   17  A    between atoms: _47  and  _48
REMARK   18  A    between atoms: _54  and  _56
REMARK   19  A    between atoms: _56  and  _57
REMARK   20  A    between atoms: _56  and  _59
REMARK   21  A    between atoms: _59  and  _60
REMARK   22  A    between atoms: _63  and  _64
REMARK   23  A    between atoms: _69  and  _71
REMARK   24  A    between atoms: _71  and  _72
REMARK   25  A    between atoms: _71  and  _74
REMARK   26  A    between atoms: _74  and  _75
REMARK   27  A    between atoms: _80  and  _82
REMARK   28  A    between atoms: _82  and  _83
REMARK   29  A    between atoms: _82  and  _85
REMARK   30  A    between atoms: _85  and  _86
REMARK   31  A    between atoms: _91  and  _93
REMARK   32  A    between atoms: _93  and  _94
REMARK   33  A    between atoms: _97  and  _99
REMARK   34  A    between atoms: _99  and  _100
REMARK   35  A    between atoms: _99  and  _102
REMARK   36  A    between atoms: _102  and  _103
REMARK   37  A    between atoms: _108  and  _110
REMARK   38  A    between atoms: _110  and  _111
REMARK   39  A    between atoms: _110  and  _113
REMARK   40  A    between atoms: _113  and  _114
REMARK   41  A    between atoms: _117  and  _119
REMARK   42  A    between atoms: _119  and  _120
REMARK   43  A    between atoms: _119  and  _122
REMARK   44  A    between atoms: _122  and  _123
REMARK   45  A    between atoms: _123  and  _124
REMARK   46  A    between atoms: _129  and  _131
REMARK   47  A    between atoms: _131  and  _132
REMARK   48  A    between atoms: _131  and  _134
REMARK   49  A    between atoms: _134  and  _135
REMARK   50  A    between atoms: _141  and  _143
REMARK   51  A    between atoms: _154  and  _157
REMARK   52  A    between atoms: _157  and  _158
REMARK   53  A    between atoms: _166  and  _167
REMARK   54  A    between atoms: _175  and  _177
REMARK   55  A    between atoms: _177  and  _178
REMARK   56  A    between atoms: _177  and  _180
REMARK   57  A    between atoms: _180  and  _181
REMARK   58  A    between atoms: _181  and  _182
REMARK   59  A    between atoms: _185  and  _187
REMARK   60  A    between atoms: _187  and  _188
REMARK   61  A    between atoms: _187  and  _190
REMARK   62  A    between atoms: _190  and  _191
REMARK   63  A    between atoms: _196  and  _198
REMARK   64  A    between atoms: _198  and  _199
REMARK   65  A    between atoms: _198  and  _201
REMARK   66  A    between atoms: _201  and  _202
REMARK   67  A    between atoms: _202  and  _203
REMARK   68  A    between atoms: _206  and  _208
REMARK   69  A    between atoms: _208  and  _209
REMARK   70  A    between atoms: _208  and  _211
REMARK   71  A    between atoms: _211  and  _212
REMARK   72  A    between atoms: _215  and  _217
REMARK   73  A    between atoms: _217  and  _218
REMARK   74  A    between atoms: _217  and  _220
REMARK   75  A    between atoms: _220  and  _221
REMARK   76  A    between atoms: _222  and  ZN_456
REMARK   77  A    between atoms: _226  and  _228
REMARK   78  A    between atoms: _228  and  _229
REMARK   79  A    between atoms: _228  and  _231
REMARK   80  A    between atoms: _231  and  _232
REMARK   81  A    between atoms: _235  and  _237
REMARK   82  A    between atoms: _237  and  _238
REMARK   83  A    between atoms: _237  and  _240
REMARK   84  A    between atoms: _243  and  _245
REMARK   85  A    between atoms: _245  and  _246
REMARK   86  A    between atoms: _245  and  _248
REMARK   87  A    between atoms: _248  and  _249
REMARK   88  A    between atoms: _254  and  _256
REMARK   89  A    between atoms: _256  and  _257
REMARK   90  A    between atoms: _256  and  _259
REMARK   91  A    between atoms: _262  and  _264
REMARK   92  A    between atoms: _264  and  _265
REMARK   93  A    between atoms: _267  and  _269
REMARK   94  A    between atoms: _269  and  _270
REMARK   95  A    between atoms: _273  and  _275
REMARK   96  A    between atoms: _275  and  _276
REMARK   97  A    between atoms: _275  and  _278
REMARK   98  A    between atoms: _281  and  _283
REMARK   99  A    between atoms: _283  and  _284
REMARK  100  A    between atoms: _283  and  _286
REMARK  101  A    between atoms: _286  and  _287
REMARK  102  A    between atoms: _287  and  _288
REMARK  103  A    between atoms: _293  and  _295
REMARK  104  A    between atoms: _295  and  _296
REMARK  105  A    between atoms: _295  and  _298
REMARK  106  A    between atoms: _298  and  _299
REMARK  107  A    between atoms: _302  and  _304
REMARK  108  A    between atoms: _304  and  _305
REMARK  109  A    between atoms: _308  and  _310
REMARK  110  A    between atoms: _310  and  _311
REMARK  111  A    between atoms: _310  and  _313
REMARK  112  A    between atoms: _316  and  _318
REMARK  113  A    between atoms: _318  and  _319
REMARK  114  A    between atoms: _318  and  _321
REMARK  115  A    between atoms: _321  and  _322
REMARK  116  A    between atoms: _325  and  _327
REMARK  117  A    between atoms: _327  and  _328
REMARK  118  A    between atoms: _330  and  _332
REMARK  119  A    between atoms: _332  and  _333
REMARK  120  A    between atoms: _332  and  _335
REMARK  121  A    between atoms: _335  and  _336
REMARK  122  A    between atoms: _338  and  _340
REMARK  123  A    between atoms: _340  and  _341
REMARK  124  A    between atoms: _340  and  _343
REMARK  125  A    between atoms: _343  and  _344
REMARK  126  A    between atoms: _347  and  _349
REMARK  127  A    between atoms: _349  and  _350
REMARK  128  A    between atoms: _349  and  _352
REMARK  129  A    between atoms: _352  and  _353
REMARK  130  A    between atoms: _356  and  _358
REMARK  131  A    between atoms: _358  and  _359
REMARK  132  A    between atoms: _358  and  _361
REMARK  133  A    between atoms: _361  and  _362
REMARK  134  A    between atoms: _366  and  _367
REMARK  135  A    between atoms: _373  and  _374
REMARK  136  A    between atoms: _379  and  _381
REMARK  137  A    between atoms: _381  and  _382
REMARK  138  A    between atoms: _381  and  _384
REMARK  139  A    between atoms: _384  and  _385
REMARK  140  A    between atoms: _388  and  _390
REMARK  141  A    between atoms: _390  and  _391
REMARK  142  A    between atoms: _390  and  _393
REMARK  143  A    between atoms: _393  and  _394
REMARK  144  A    between atoms: _397  and  _399
REMARK  145  A    between atoms: _399  and  _400
REMARK  146  A    between atoms: _399  and  _402
REMARK  147  A    between atoms: _404  and  _406
REMARK  148  A    between atoms: _406  and  _407
REMARK  149  A    between atoms: _406  and  _409
REMARK  150  A    between atoms: _412  and  _414
REMARK  151  A    between atoms: _414  and  _415
REMARK  152  A    between atoms: _414  and  _417
REMARK  153  A    between atoms: _417  and  _418
REMARK  154  A    between atoms: _428  and  _430
REMARK  155  A    between atoms: _430  and  _431
REMARK  156  A    between atoms: _430  and  _433
REMARK  157  A    between atoms: _433  and  _434
REMARK  158  A    between atoms: _439  and  _441
REMARK  159  A    between atoms: _441  and  _442
REMARK  160  A    between atoms: _441  and  _444
REMARK  161  A    between atoms: _444  and  _445
REMARK  162  A    between atoms: _445  and  _446
REMARK  163  A    between atoms: _446  and  _447
REMARK                            x       y       z     vdW  Elec       q    Type
REMARK                         _______ _______ _______ _____ _____    ______ ____
ROOT
ATOM      1  O   HOH     1      -5.983  12.405  10.331  0.00  0.00    +0.000 OA
ENDROOT
TORSDOF 0
REMARK  Name = ../refined-set-2016/1g4j/1g4j_pocket.pdb
REMARK  163 active torsions:
REMARK  status: ('A' for Active; 'I' for Inactive)
REMARK    1  A    between atoms: _1  and  _3
REMARK    2  A    between atoms: _3  and  _4
REMARK    3  A    between atoms: _3  and  _6
REMARK    4  A    between atoms: _6  and  _7
REMARK    5  A    between atoms: _12  and  _14
REMARK    6  A    between atoms: _14  and  _15
REMARK    7  A    between atoms: _14  and  _17
REMARK    8  A    between atoms: _17  and  _18
REMARK    9  A    between atoms: _28  and  _30
REMARK   10  A    between atoms: _30  and  _31
REMARK   11  A    between atoms: _30  and  _33
REMARK   12  A    between atoms: _33  and  _34
REMARK   13  A    between atoms: _39  and  _40
REMARK   14  A    between atoms: _42  and  _44
REMARK   15  A    between atoms: _44  and  _45
REMARK   16  A    between atoms: _44  and  _47
REMARK   17  A    between atoms: _47  and  _48
REMARK   18  A    between atoms: _54  and  _56
REMARK   19  A    between atoms: _56  and  _57
REMARK   20  A    between atoms: _56  and  _59
REMARK   21  A    between atoms: _59  and  _60
REMARK   22  A    between atoms: _63  and  _64
REMARK   23  A    between atoms: _69  and  _71
REMARK   24  A    between atoms: _71  and  _72
REMARK   25  A    between atoms: _71  and  _74
REMARK   26  A    between atoms: _74  and  _75
REMARK   27  A    between atoms: _80  and  _82
REMARK   28  A    between atoms: _82  and  _83
REMARK   29  A    between atoms: _82  and  _85
REMARK   30  A    between atoms: _85  and  _86
REMARK   31  A    between atoms: _91  and  _93
REMARK   32  A    between atoms: _93  and  _94
REMARK   33  A    between atoms: _97  and  _99
REMARK   34  A    between atoms: _99  and  _100
REMARK   35  A    between atoms: _99  and  _102
REMARK   36  A    between atoms: _102  and  _103
REMARK   37  A    between atoms: _108  and  _110
REMARK   38  A    between atoms: _110  and  _111
REMARK   39  A    between atoms: _110  and  _113
REMARK   40  A    between atoms: _113  and  _114
REMARK   41  A    between atoms: _117  and  _119
REMARK   42  A    between atoms: _119  and  _120
REMARK   43  A    between atoms: _119  and  _122
REMARK   44  A    between atoms: _122  and  _123
REMARK   45  A    between atoms: _123  and  _124
REMARK   46  A    between atoms: _129  and  _131
REMARK   47  A    between atoms: _131  and  _132
REMARK   48  A    between atoms: _131  and  _134
REMARK   49  A    between atoms: _134  and  _135
REMARK   50  A    between atoms: _141  and  _143
REMARK   51  A    between atoms: _154  and  _157
REMARK   52  A    between atoms: _157  and  _158
REMARK   53  A    between atoms: _166  and  _167
REMARK   54  A    between atoms: _175  and  _177
REMARK   55  A    between atoms: _177  and  _178
REMARK   56  A    between atoms: _177  and  _180
REMARK   57  A    between atoms: _180  and  _181
REMARK   58  A    between atoms: _181  and  _182
REMARK   59  A    between atoms: _185  and  _187
REMARK   60  A    between atoms: _187  and  _188
REMARK   61  A    between atoms: _187  and  _190
REMARK   62  A    between atoms: _190  and  _191
REMARK   63  A    between atoms: _196  and  _198
REMARK   64  A    between atoms: _198  and  _199
REMARK   65  A    between atoms: _198  and  _201
REMARK   66  A    between atoms: _201  and  _202
REMARK   67  A    between atoms: _202  and  _203
REMARK   68  A    between atoms: _206  and  _208
REMARK   69  A    between atoms: _208  and  _209
REMARK   70  A    between atoms: _208  and  _211
REMARK   71  A    between atoms: _211  and  _212
REMARK   72  A    between atoms: _215  and  _217
REMARK   73  A    between atoms: _217  and  _218
REMARK   74  A    between atoms: _217  and  _220
REMARK   75  A    between atoms: _220  and  _221
REMARK   76  A    between atoms: _222  and  ZN_456
REMARK   77  A    between atoms: _226  and  _228
REMARK   78  A    between atoms: _228  and  _229
REMARK   79  A    between atoms: _228  and  _231
REMARK   80  A    between atoms: _231  and  _232
REMARK   81  A    between atoms: _235  and  _237
REMARK   82  A    between atoms: _237  and  _238
REMARK   83  A    between atoms: _237  and  _240
REMARK   84  A    between atoms: _243  and  _245
REMARK   85  A    between atoms: _245  and  _246
REMARK   86  A    between atoms: _245  and  _248
REMARK   87  A    between atoms: _248  and  _249
REMARK   88  A    between atoms: _254  and  _256
REMARK   89  A    between atoms: _256  and  _257
REMARK   90  A    between atoms: _256  and  _259
REMARK   91  A    between atoms: _262  and  _264
REMARK   92  A    between atoms: _264  and  _265
REMARK   93  A    between atoms: _267  and  _269
REMARK   94  A    between atoms: _269  and  _270
REMARK   95  A    between atoms: _273  and  _275
REMARK   96  A    between atoms: _275  and  _276
REMARK   97  A    between atoms: _275  and  _278
REMARK   98  A    between atoms: _281  and  _283
REMARK   99  A    between atoms: _283  and  _284
REMARK  100  A    between atoms: _283  and  _286
REMARK  101  A    between atoms: _286  and  _287
REMARK  102  A    between atoms: _287  and  _288
REMARK  103  A    between atoms: _293  and  _295
REMARK  104  A    between atoms: _295  and  _296
REMARK  105  A    between atoms: _295  and  _298
REMARK  106  A    between atoms: _298  and  _299
REMARK  107  A    between atoms: _302  and  _304
REMARK  108  A    between atoms: _304  and  _305
REMARK  109  A    between atoms: _308  and  _310
REMARK  110  A    between atoms: _310  and  _311
REMARK  111  A    between atoms: _310  and  _313
REMARK  112  A    between atoms: _316  and  _318
REMARK  113  A    between atoms: _318  and  _319
REMARK  114  A    between atoms: _318  and  _321
REMARK  115  A    between atoms: _321  and  _322
REMARK  116  A    between atoms: _325  and  _327
REMARK  117  A    between atoms: _327  and  _328
REMARK  118  A    between atoms: _330  and  _332
REMARK  119  A    between atoms: _332  and  _333
REMARK  120  A    between atoms: _332  and  _335
REMARK  121  A    between atoms: _335  and  _336
REMARK  122  A    between atoms: _338  and  _340
REMARK  123  A    between atoms: _340  and  _341
REMARK  124  A    between atoms: _340  and  _343
REMARK  125  A    between atoms: _343  and  _344
REMARK  126  A    between atoms: _347  and  _349
REMARK  127  A    between atoms: _349  and  _350
REMARK  128  A    between atoms: _349  and  _352
REMARK  129  A    between atoms: _352  and  _353
REMARK  130  A    between atoms: _356  and  _358
REMARK  131  A    between atoms: _358  and  _359
REMARK  132  A    between atoms: _358  and  _361
REMARK  133  A    between atoms: _361  and  _362
REMARK  134  A    between atoms: _366  and  _367
REMARK  135  A    between atoms: _373  and  _374
REMARK  136  A    between atoms: _379  and  _381
REMARK  137  A    between atoms: _381  and  _382
REMARK  138  A    between atoms: _381  and  _384
REMARK  139  A    between atoms: _384  and  _385
REMARK  140  A    between atoms: _388  and  _390
REMARK  141  A    between atoms: _390  and  _391
REMARK  142  A    between atoms: _390  and  _393
REMARK  143  A    between atoms: _393  and  _394
REMARK  144  A    between atoms: _397  and  _399
REMARK  145  A    between atoms: _399  and  _400
REMARK  146  A    between atoms: _399  and  _402
REMARK  147  A    between atoms: _404  and  _406
REMARK  148  A    between atoms: _406  and  _407
REMARK  149  A    between atoms: _406  and  _409
REMARK  150  A    between atoms: _412  and  _414
REMARK  151  A    between atoms: _414  and  _415
REMARK  152  A    between atoms: _414  and  _417
REMARK  153  A    between atoms: _417  and  _418
REMARK  154  A    between atoms: _428  and  _430
REMARK  155  A    between atoms: _430  and  _431
REMARK  156  A    between atoms: _430  and  _433
REMARK  157  A    between atoms: _433  and  _434
REMARK  158  A    between atoms: _439  and  _441
REMARK  159  A    between atoms: _441  and  _442
REMARK  160  A    between atoms: _441  and  _444
REMARK  161  A    between atoms: _444  and  _445
REMARK  162  A    between atoms: _445  and  _446
REMARK  163  A    between atoms: _446  and  _447
REMARK                            x       y       z     vdW  Elec       q    Type
REMARK                         _______ _______ _______ _____ _____    ______ ____
ROOT
ATOM      1  O   HOH     1      -4.144   5.297   7.541  0.00  0.00    +0.000 OA
ENDROOT
TORSDOF 0
REMARK  Name = ../refined-set-2016/1g4j/1g4j_pocket.pdb
REMARK  163 active torsions:
REMARK  status: ('A' for Active; 'I' for Inactive)
REMARK    1  A    between atoms: _1  and  _3
REMARK    2  A    between atoms: _3  and  _4
REMARK    3  A    between atoms: _3  and  _6
REMARK    4  A    between atoms: _6  and  _7
REMARK    5  A    between atoms: _12  and  _14
REMARK    6  A    between atoms: _14  and  _15
REMARK    7  A    between atoms: _14  and  _17
REMARK    8  A    between atoms: _17  and  _18
REMARK    9  A    between atoms: _28  and  _30
REMARK   10  A    between atoms: _30  and  _31
REMARK   11  A    between atoms: _30  and  _33
REMARK   12  A    between atoms: _33  and  _34
REMARK   13  A    between atoms: _39  and  _40
REMARK   14  A    between atoms: _42  and  _44
REMARK   15  A    between atoms: _44  and  _45
REMARK   16  A    between atoms: _44  and  _47
REMARK   17  A    between atoms: _47  and  _48
REMARK   18  A    between atoms: _54  and  _56
REMARK   19  A    between atoms: _56  and  _57
REMARK   20  A    between atoms: _56  and  _59
REMARK   21  A    between atoms: _59  and  _60
REMARK   22  A    between atoms: _63  and  _64
REMARK   23  A    between atoms: _69  and  _71
REMARK   24  A    between atoms: _71  and  _72
REMARK   25  A    between atoms: _71  and  _74
REMARK   26  A    between atoms: _74  and  _75
REMARK   27  A    between atoms: _80  and  _82
REMARK   28  A    between atoms: _82  and  _83
REMARK   29  A    between atoms: _82  and  _85
REMARK   30  A    between atoms: _85  and  _86
REMARK   31  A    between atoms: _91  and  _93
REMARK   32  A    between atoms: _93  and  _94
REMARK   33  A    between atoms: _97  and  _99
REMARK   34  A    between atoms: _99  and  _100
REMARK   35  A    between atoms: _99  and  _102
REMARK   36  A    between atoms: _102  and  _103
REMARK   37  A    between atoms: _108  and  _110
REMARK   38  A    between atoms: _110  and  _111
REMARK   39  A    between atoms: _110  and  _113
REMARK   40  A    between atoms: _113  and  _114
REMARK   41  A    between atoms: _117  and  _119
REMARK   42  A    between atoms: _119  and  _120
REMARK   43  A    between atoms: _119  and  _122
REMARK   44  A    between atoms: _122  and  _123
REMARK   45  A    between atoms: _123  and  _124
REMARK   46  A    between atoms: _129  and  _131
REMARK   47  A    between atoms: _131  and  _132
REMARK   48  A    between atoms: _131  and  _134
REMARK   49  A    between atoms: _134  and  _135
REMARK   50  A    between atoms: _141  and  _143
REMARK   51  A    between atoms: _154  and  _157
REMARK   52  A    between atoms: _157  and  _158
REMARK   53  A    between atoms: _166  and  _167
REMARK   54  A    between atoms: _175  and  _177
REMARK   55  A    between atoms: _177  and  _178
REMARK   56  A    between atoms: _177  and  _180
REMARK   57  A    between atoms: _180  and  _181
REMARK   58  A    between atoms: _181  and  _182
REMARK   59  A    between atoms: _185  and  _187
REMARK   60  A    between atoms: _187  and  _188
REMARK   61  A    between atoms: _187  and  _190
REMARK   62  A    between atoms: _190  and  _191
REMARK   63  A    between atoms: _196  and  _198
REMARK   64  A    between atoms: _198  and  _199
REMARK   65  A    between atoms: _198  and  _201
REMARK   66  A    between atoms: _201  and  _202
REMARK   67  A    between atoms: _202  and  _203
REMARK   68  A    between atoms: _206  and  _208
REMARK   69  A    between atoms: _208  and  _209
REMARK   70  A    between atoms: _208  and  _211
REMARK   71  A    between atoms: _211  and  _212
REMARK   72  A    between atoms: _215  and  _217
REMARK   73  A    between atoms: _217  and  _218
REMARK   74  A    between atoms: _217  and  _220
REMARK   75  A    between atoms: _220  and  _221
REMARK   76  A    between atoms: _222  and  ZN_456
REMARK   77  A    between atoms: _226  and  _228
REMARK   78  A    between atoms: _228  and  _229
REMARK   79  A    between atoms: _228  and  _231
REMARK   80  A    between atoms: _231  and  _232
REMARK   81  A    between atoms: _235  and  _237
REMARK   82  A    between atoms: _237  and  _238
REMARK   83  A    between atoms: _237  and  _240
REMARK   84  A    between atoms: _243  and  _245
REMARK   85  A    between atoms: _245  and  _246
REMARK   86  A    between atoms: _245  and  _248
REMARK   87  A    between atoms: _248  and  _249
REMARK   88  A    between atoms: _254  and  _256
REMARK   89  A    between atoms: _256  and  _257
REMARK   90  A    between atoms: _256  and  _259
REMARK   91  A    between atoms: _262  and  _264
REMARK   92  A    between atoms: _264  and  _265
REMARK   93  A    between atoms: _267  and  _269
REMARK   94  A    between atoms: _269  and  _270
REMARK   95  A    between atoms: _273  and  _275
REMARK   96  A    between atoms: _275  and  _276
REMARK   97  A    between atoms: _275  and  _278
REMARK   98  A    between atoms: _281  and  _283
REMARK   99  A    between atoms: _283  and  _284
REMARK  100  A    between atoms: _283  and  _286
REMARK  101  A    between atoms: _286  and  _287
REMARK  102  A    between atoms: _287  and  _288
REMARK  103  A    between atoms: _293  and  _295
REMARK  104  A    between atoms: _295  and  _296
REMARK  105  A    between atoms: _295  and  _298
REMARK  106  A    between atoms: _298  and  _299
REMARK  107  A    between atoms: _302  and  _304
REMARK  108  A    between atoms: _304  and  _305
REMARK  109  A    between atoms: _308  and  _310
REMARK  110  A    between atoms: _310  and  _311
REMARK  111  A    between atoms: _310  and  _313
REMARK  112  A    between atoms: _316  and  _318
REMARK  113  A    between atoms: _318  and  _319
REMARK  114  A    between atoms: _318  and  _321
REMARK  115  A    between atoms: _321  and  _322
REMARK  116  A    between atoms: _325  and  _327
REMARK  117  A    between atoms: _327  and  _328
REMARK  118  A    between atoms: _330  and  _332
REMARK  119  A    between atoms: _332  and  _333
REMARK  120  A    between atoms: _332  and  _335
REMARK  121  A    between atoms: _335  and  _336
REMARK  122  A    between atoms: _338  and  _340
REMARK  123  A    between atoms: _340  and  _341
REMARK  124  A    between atoms: _340  and  _343
REMARK  125  A    between atoms: _343  and  _344
REMARK  126  A    between atoms: _347  and  _349
REMARK  127  A    between atoms: _349  and  _350
REMARK  128  A    between atoms: _349  and  _352
REMARK  129  A    between atoms: _352  and  _353
REMARK  130  A    between atoms: _356  and  _358
REMARK  131  A    between atoms: _358  and  _359
REMARK  132  A    between atoms: _358  and  _361
REMARK  133  A    between atoms: _361  and  _362
REMARK  134  A    between atoms: _366  and  _367
REMARK  135  A    between atoms: _373  and  _374
REMARK  136  A    between atoms: _379  and  _381
REMARK  137  A    between atoms: _381  and  _382
REMARK  138  A    between atoms: _381  and  _384
REMARK  139  A    between atoms: _384  and  _385
REMARK  140  A    between atoms: _388  and  _390
REMARK  141  A    between atoms: _390  and  _391
REMARK  142  A    between atoms: _390  and  _393
REMARK  143  A    between atoms: _393  and  _394
REMARK  144  A    between atoms: _397  and  _399
REMARK  145  A    between atoms: _399  and  _400
REMARK  146  A    between atoms: _399  and  _402
REMARK  147  A    between atoms: _404  and  _406
REMARK  148  A    between atoms: _406  and  _407
REMARK  149  A    between atoms: _406  and  _409
REMARK  150  A    between atoms: _412  and  _414
REMARK  151  A    between atoms: _414  and  _415
REMARK  152  A    between atoms: _414  and  _417
REMARK  153  A    between atoms: _417  and  _418
REMARK  154  A    between atoms: _428  and  _430
REMARK  155  A    between atoms: _430  and  _431
REMARK  156  A    between atoms: _430  and  _433
REMARK  157  A    between atoms: _433  and  _434
REMARK  158  A    between atoms: _439  and  _441
REMARK  159  A    between atoms: _441  and  _442
REMARK  160  A    between atoms: _441  and  _444
REMARK  161  A    between atoms: _444  and  _445
REMARK  162  A    between atoms: _445  and  _446
REMARK  163  A    between atoms: _446  and  _447
REMARK                            x       y       z     vdW  Elec       q    Type
REMARK                         _______ _______ _______ _____ _____    ______ ____
ROOT
ATOM      1  O   HOH     1      -4.897   4.458  10.253  0.00  0.00    +0.000 OA
ENDROOT
TORSDOF 0
