REMARK  Name = ../refined-set-2016/4xtv/4xtv_pocket.pdb
REMARK  235 active torsions:
REMARK  status: ('A' for Active; 'I' for Inactive)
REMARK    1  A    between atoms: _1  and  _3
REMARK    2  A    between atoms: _3  and  _4
REMARK    3  A    between atoms: _3  and  _6
REMARK    4  A    between atoms: _6  and  _7
REMARK    5  A    between atoms: _10  and  _12
REMARK    6  A    between atoms: _12  and  _13
REMARK    7  A    between atoms: _15  and  _17
REMARK    8  A    between atoms: _17  and  _18
REMARK    9  A    between atoms: _17  and  _20
REMARK   10  A    between atoms: _20  and  _21
REMARK   11  A    between atoms: _23  and  _25
REMARK   12  A    between atoms: _25  and  _26
REMARK   13  A    between atoms: _25  and  _28
REMARK   14  A    between atoms: _28  and  _29
REMARK   15  A    between atoms: _32  and  _34
REMARK   16  A    between atoms: _34  and  _35
REMARK   17  A    between atoms: _34  and  _37
REMARK   18  A    between atoms: _37  and  _38
REMARK   19  A    between atoms: _43  and  _45
REMARK   20  A    between atoms: _45  and  _46
REMARK   21  A    between atoms: _49  and  _51
REMARK   22  A    between atoms: _51  and  _52
REMARK   23  A    between atoms: _51  and  _54
REMARK   24  A    between atoms: _54  and  _55
REMARK   25  A    between atoms: _58  and  _60
REMARK   26  A    between atoms: _60  and  _61
REMARK   27  A    between atoms: _60  and  _63
REMARK   28  A    between atoms: _63  and  _64
REMARK   29  A    between atoms: _67  and  _69
REMARK   30  A    between atoms: _69  and  _70
REMARK   31  A    between atoms: _69  and  _72
REMARK   32  A    between atoms: _72  and  _73
REMARK   33  A    between atoms: _76  and  _78
REMARK   34  A    between atoms: _78  and  _79
REMARK   35  A    between atoms: _82  and  _84
REMARK   36  A    between atoms: _84  and  _85
REMARK   37  A    between atoms: _84  and  _87
REMARK   38  A    between atoms: _87  and  _88
REMARK   39  A    between atoms: _88  and  _89
REMARK   40  A    between atoms: _94  and  _96
REMARK   41  A    between atoms: _96  and  _97
REMARK   42  A    between atoms: _96  and  _99
REMARK   43  A    between atoms: _99  and  _100
REMARK   44  A    between atoms: _103  and  _105
REMARK   45  A    between atoms: _105  and  _106
REMARK   46  A    between atoms: _109  and  _111
REMARK   47  A    between atoms: _111  and  _112
REMARK   48  A    between atoms: _114  and  _116
REMARK   49  A    between atoms: _116  and  _117
REMARK   50  A    between atoms: _116  and  _119
REMARK   51  A    between atoms: _119  and  _120
REMARK   52  A    between atoms: _120  and  _121
REMARK   53  A    between atoms: _121  and  _122
REMARK   54  A    between atoms: _131  and  _133
REMARK   55  A    between atoms: _133  and  _134
REMARK   56  A    between atoms: _136  and  _138
REMARK   57  A    between atoms: _138  and  _139
REMARK   58  A    between atoms: _138  and  _141
REMARK   59  A    between atoms: _141  and  _142
REMARK   60  A    between atoms: _142  and  _143
REMARK   61  A    between atoms: _143  and  _144
REMARK   62  A    between atoms: _153  and  _155
REMARK   63  A    between atoms: _155  and  _156
REMARK   64  A    between atoms: _155  and  _158
REMARK   65  A    between atoms: _158  and  _159
REMARK   66  A    between atoms: _164  and  _166
REMARK   67  A    between atoms: _166  and  _167
REMARK   68  A    between atoms: _169  and  _171
REMARK   69  A    between atoms: _171  and  _172
REMARK   70  A    between atoms: _171  and  _174
REMARK   71  A    between atoms: _174  and  _175
REMARK   72  A    between atoms: _175  and  _176
REMARK   73  A    between atoms: _176  and  _177
REMARK   74  A    between atoms: _186  and  _188
REMARK   75  A    between atoms: _188  and  _189
REMARK   76  A    between atoms: _191  and  _193
REMARK   77  A    between atoms: _193  and  _194
REMARK   78  A    between atoms: _193  and  _196
REMARK   79  A    between atoms: _196  and  _197
REMARK   80  A    between atoms: _207  and  _209
REMARK   81  A    between atoms: _209  and  _210
REMARK   82  A    between atoms: _213  and  _215
REMARK   83  A    between atoms: _215  and  _216
REMARK   84  A    between atoms: _219  and  _221
REMARK   85  A    between atoms: _221  and  _222
REMARK   86  A    between atoms: _221  and  _224
REMARK   87  A    between atoms: _224  and  _225
REMARK   88  A    between atoms: _228  and  _230
REMARK   89  A    between atoms: _230  and  _231
REMARK   90  A    between atoms: _230  and  _233
REMARK   91  A    between atoms: _233  and  _234
REMARK   92  A    between atoms: _234  and  _235
REMARK   93  A    between atoms: _240  and  _242
REMARK   94  A    between atoms: _242  and  _243
REMARK   95  A    between atoms: _242  and  _245
REMARK   96  A    between atoms: _245  and  _246
REMARK   97  A    between atoms: _249  and  _251
REMARK   98  A    between atoms: _251  and  _252
REMARK   99  A    between atoms: _251  and  _254
REMARK  100  A    between atoms: _254  and  _255
REMARK  101  A    between atoms: _258  and  _260
REMARK  102  A    between atoms: _260  and  _261
REMARK  103  A    between atoms: _260  and  _263
REMARK  104  A    between atoms: _263  and  _264
REMARK  105  A    between atoms: _267  and  _269
REMARK  106  A    between atoms: _269  and  _270
REMARK  107  A    between atoms: _269  and  _272
REMARK  108  A    between atoms: _272  and  _273
REMARK  109  A    between atoms: _275  and  _277
REMARK  110  A    between atoms: _277  and  _278
REMARK  111  A    between atoms: _277  and  _280
REMARK  112  A    between atoms: _283  and  _285
REMARK  113  A    between atoms: _285  and  _286
REMARK  114  A    between atoms: _285  and  _288
REMARK  115  A    between atoms: _288  and  _289
REMARK  116  A    between atoms: _289  and  _290
REMARK  117  A    between atoms: _290  and  _291
REMARK  118  A    between atoms: _291  and  _292
REMARK  119  A    between atoms: _296  and  _298
REMARK  120  A    between atoms: _298  and  _299
REMARK  121  A    between atoms: _298  and  _301
REMARK  122  A    between atoms: _301  and  _302
REMARK  123  A    between atoms: _313  and  _314
REMARK  124  A    between atoms: _319  and  _321
REMARK  125  A    between atoms: _321  and  _322
REMARK  126  A    between atoms: _321  and  _324
REMARK  127  A    between atoms: _324  and  _325
REMARK  128  A    between atoms: _330  and  _332
REMARK  129  A    between atoms: _332  and  _333
REMARK  130  A    between atoms: _332  and  _335
REMARK  131  A    between atoms: _335  and  _336
REMARK  132  A    between atoms: _339  and  _341
REMARK  133  A    between atoms: _341  and  _342
REMARK  134  A    between atoms: _341  and  _344
REMARK  135  A    between atoms: _347  and  _349
REMARK  136  A    between atoms: _349  and  _350
REMARK  137  A    between atoms: _352  and  _354
REMARK  138  A    between atoms: _354  and  _355
REMARK  139  A    between atoms: _354  and  _357
REMARK  140  A    between atoms: _357  and  _358
REMARK  141  A    between atoms: _358  and  _359
REMARK  142  A    between atoms: _359  and  _360
REMARK  143  A    between atoms: _360  and  _361
REMARK  144  A    between atoms: _365  and  _367
REMARK  145  A    between atoms: _367  and  _368
REMARK  146  A    between atoms: _367  and  _370
REMARK  147  A    between atoms: _370  and  _371
REMARK  148  A    between atoms: _374  and  _376
REMARK  149  A    between atoms: _376  and  _377
REMARK  150  A    between atoms: _380  and  _382
REMARK  151  A    between atoms: _382  and  _383
REMARK  152  A    between atoms: _385  and  _387
REMARK  153  A    between atoms: _387  and  _388
REMARK  154  A    between atoms: _387  and  _390
REMARK  155  A    between atoms: _390  and  _391
REMARK  156  A    between atoms: _394  and  _396
REMARK  157  A    between atoms: _396  and  _397
REMARK  158  A    between atoms: _396  and  _399
REMARK  159  A    between atoms: _399  and  _400
REMARK  160  A    between atoms: _403  and  _405
REMARK  161  A    between atoms: _405  and  _406
REMARK  162  A    between atoms: _409  and  _411
REMARK  163  A    between atoms: _411  and  _412
REMARK  164  A    between atoms: _411  and  _414
REMARK  165  A    between atoms: _414  and  _415
REMARK  166  A    between atoms: _415  and  _416
REMARK  167  A    between atoms: _419  and  _421
REMARK  168  A    between atoms: _421  and  _422
REMARK  169  A    between atoms: _421  and  _424
REMARK  170  A    between atoms: _427  and  _429
REMARK  171  A    between atoms: _429  and  _430
REMARK  172  A    between atoms: _429  and  _432
REMARK  173  A    between atoms: _432  and  _433
REMARK  174  A    between atoms: _436  and  _438
REMARK  175  A    between atoms: _438  and  _439
REMARK  176  A    between atoms: _441  and  _443
REMARK  177  A    between atoms: _443  and  _444
REMARK  178  A    between atoms: _443  and  _446
REMARK  179  A    between atoms: _449  and  _451
REMARK  180  A    between atoms: _451  and  _452
REMARK  181  A    between atoms: _454  and  _456
REMARK  182  A    between atoms: _456  and  _457
REMARK  183  A    between atoms: _456  and  _459
REMARK  184  A    between atoms: _459  and  _460
REMARK  185  A    between atoms: _463  and  _465
REMARK  186  A    between atoms: _465  and  _466
REMARK  187  A    between atoms: _465  and  _468
REMARK  188  A    between atoms: _468  and  _469
REMARK  189  A    between atoms: _474  and  _476
REMARK  190  A    between atoms: _476  and  _477
REMARK  191  A    between atoms: _476  and  _479
REMARK  192  A    between atoms: _482  and  _484
REMARK  193  A    between atoms: _484  and  _485
REMARK  194  A    between atoms: _484  and  _487
REMARK  195  A    between atoms: _487  and  _488
REMARK  196  A    between atoms: _488  and  _489
REMARK  197  A    between atoms: _494  and  _496
REMARK  198  A    between atoms: _496  and  _497
REMARK  199  A    between atoms: _501  and  _502
REMARK  200  A    between atoms: _507  and  _509
REMARK  201  A    between atoms: _509  and  _510
REMARK  202  A    between atoms: _509  and  _512
REMARK  203  A    between atoms: _512  and  _513
REMARK  204  A    between atoms: _513  and  _514
REMARK  205  A    between atoms: _517  and  _519
REMARK  206  A    between atoms: _519  and  _520
REMARK  207  A    between atoms: _519  and  _522
REMARK  208  A    between atoms: _525  and  _527
REMARK  209  A    between atoms: _527  and  _528
REMARK  210  A    between atoms: _527  and  _530
REMARK  211  A    between atoms: _530  and  _531
REMARK  212  A    between atoms: _535  and  _536
REMARK  213  A    between atoms: _541  and  _543
REMARK  214  A    between atoms: _543  and  _544
REMARK  215  A    between atoms: _543  and  _546
REMARK  216  A    between atoms: _546  and  _547
REMARK  217  A    between atoms: _550  and  _552
REMARK  218  A    between atoms: _552  and  _553
REMARK  219  A    between atoms: _556  and  _558
REMARK  220  A    between atoms: _558  and  _559
REMARK  221  A    between atoms: _558  and  _561
REMARK  222  A    between atoms: _561  and  _562
REMARK  223  A    between atoms: _565  and  _567
REMARK  224  A    between atoms: _567  and  _568
REMARK  225  A    between atoms: _567  and  _570
REMARK  226  A    between atoms: _570  and  _571
REMARK  227  A    between atoms: _573  and  _575
REMARK  228  A    between atoms: _575  and  _576
REMARK  229  A    between atoms: _578  and  _580
REMARK  230  A    between atoms: _580  and  _581
REMARK  231  A    between atoms: _580  and  _583
REMARK  232  A    between atoms: _583  and  _584
REMARK  233  A    between atoms: _587  and  _589
REMARK  234  A    between atoms: _589  and  _590
REMARK  235  A    between atoms: _589  and  _592
REMARK                            x       y       z     vdW  Elec       q    Type
REMARK                         _______ _______ _______ _____ _____    ______ ____
ROOT
ATOM      1  C   THR A   4       1.537 -13.587  17.447  0.00  0.00    +0.243 C 
ATOM      2  O   THR A   4       1.829 -14.761  17.678  0.00  0.00    -0.273 OA
ATOM      3  N   ASN A   5       1.395 -13.110  16.215  0.00  0.00    -0.297 N 
ATOM      4  H   ASN A   5       1.087 -12.126  16.079  0.00  0.00    +0.150 HD
ENDROOT
BRANCH   3   5
ATOM      5  CA  ASN A   5       1.664 -13.944  15.053  0.00  0.00    +0.158 C 
BRANCH   5   6
ATOM      6  C   ASN A   5       3.126 -14.377  15.017  0.00  0.00    +0.241 C 
ATOM      7  N   ALA A   6       4.024 -13.421  15.228  0.00  0.00    -0.297 N 
ATOM      8  H   ALA A   6       3.698 -12.446  15.384  0.00  0.00    +0.150 HD
ATOM      9  O   ASN A   5       3.432 -15.550  14.808  0.00  0.00    -0.273 OA
BRANCH   7  10
ATOM     10  CA  ALA A   6       5.454 -13.703  15.247  0.00  0.00    +0.149 C 
ATOM     11  CB  ALA A   6       6.243 -12.416  15.411  0.00  0.00    +0.031 C 
BRANCH  10  12
ATOM     12  C   ALA A   6       5.808 -14.683  16.359  0.00  0.00    +0.241 C 
ATOM     13  N   ASP A   7       5.153 -14.531  17.506  0.00  0.00    -0.297 N 
ATOM     14  H   ASP A   7       4.430 -13.787  17.580  0.00  0.00    +0.150 HD
ATOM     15  O   ALA A   6       6.651 -15.561  16.180  0.00  0.00    -0.273 OA
BRANCH  13  16
ATOM     16  CA  ASP A   7       5.420 -15.379  18.664  0.00  0.00    +0.160 C 
BRANCH  16  17
ATOM     17  C   ASP A   7       5.072 -16.843  18.406  0.00  0.00    +0.241 C 
ATOM     18  O   ASP A   7       5.859 -17.733  18.721  0.00  0.00    -0.273 OA
ATOM     19  N   LEU A   8       3.896 -17.091  17.837  0.00  0.00    -0.298 N 
ATOM     20  H   LEU A   8       3.260 -16.300  17.610  0.00  0.00    +0.150 HD
BRANCH  19  21
ATOM     21  CA  LEU A   8       3.483 -18.457  17.525  0.00  0.00    +0.137 C 
BRANCH  21  22
ATOM     22  C   LEU A   8       4.322 -19.069  16.401  0.00  0.00    +0.227 C 
ATOM     23  O   LEU A   8       4.611 -20.266  16.414  0.00  0.00    -0.286 OA
ENDBRANCH  21  22
BRANCH  21  24
ATOM     24  CB  LEU A   8       1.990 -18.521  17.181  0.00  0.00    +0.028 C 
BRANCH  24  25
ATOM     25  CG  LEU A   8       1.018 -18.403  18.358  0.00  0.00    +0.002 C 
ATOM     26  CD2 LEU A   8       1.510 -19.223  19.536  0.00  0.00    +0.000 C 
ATOM     27  CD1 LEU A   8      -0.383 -18.837  17.950  0.00  0.00    +0.000 C 
ENDBRANCH  24  25
ENDBRANCH  21  24
ENDBRANCH  19  21
ENDBRANCH  16  17
BRANCH  16  28
ATOM     28  CB  ASP A   7       4.672 -14.869  19.897  0.00  0.00    +0.143 C 
BRANCH  28  29
ATOM     29  CG  ASP A   7       5.211 -13.546  20.400  0.00  0.00    +0.367 C 
ATOM     30  OD2 ASP A   7       4.529 -12.902  21.224  0.00  0.00    -0.246 OA
ATOM     31  OD1 ASP A   7       6.320 -13.154  19.980  0.00  0.00    -0.246 OA
ENDBRANCH  28  29
ENDBRANCH  16  28
ENDBRANCH  13  16
ENDBRANCH  10  12
ENDBRANCH   7  10
ENDBRANCH   5   6
BRANCH   5  32
ATOM     32  CB  ASN A   5       1.308 -13.204  13.763  0.00  0.00    +0.114 C 
BRANCH  32  33
ATOM     33  CG  ASN A   5      -0.020 -13.642  13.183  0.00  0.00    +0.222 C 
ATOM     34  OD1 ASN A   5      -0.938 -14.022  13.909  0.00  0.00    -0.275 OA
ATOM     35  ND2 ASN A   5      -0.124 -13.599  11.861  0.00  0.00    -0.329 N 
ATOM     36 HD21 ASN A   5      -1.008 -13.894  11.399  0.00  0.00    +0.145 HD
ATOM     37 HD22 ASN A   5       0.678 -13.271  11.287  0.00  0.00    +0.145 HD
ENDBRANCH  32  33
ENDBRANCH   5  32
ENDBRANCH   3   5
BRANCH   1  38
ATOM     38  CA  THR A   4       1.323 -12.597  18.589  0.00  0.00    +0.176 C 
BRANCH  38  40
ATOM     39  C   SER A   3       3.051 -11.007  17.963  0.00  0.00    +0.243 C 
ATOM     40  N   THR A   4       1.770 -11.258  18.220  0.00  0.00    -0.295 N 
ATOM     41  H   THR A   4       1.075 -10.487  18.157  0.00  0.00    +0.150 HD
ATOM     42  O   SER A   3       3.925 -11.872  18.014  0.00  0.00    -0.273 OA
BRANCH  39  43
ATOM     43  CA  SER A   3       3.406  -9.574  17.597  0.00  0.00    +0.178 C 
BRANCH  43  45
ATOM     44  C   GLY A   2       4.595  -7.758  18.713  0.00  0.00    +0.243 C 
ATOM     45  N   SER A   3       4.408  -9.058  18.521  0.00  0.00    -0.295 N 
ATOM     46  H   SER A   3       4.998  -9.733  19.049  0.00  0.00    +0.150 HD
ATOM     47  O   GLY A   2       3.930  -6.894  18.149  0.00  0.00    -0.273 OA
BRANCH  44  48
ATOM     48  CA  GLY A   2       5.689  -7.384  19.692  0.00  0.00    +0.176 C 
BRANCH  48  51
ATOM     49  C   THR A   1       4.532  -7.775  21.781  0.00  0.00    +0.241 C 
ATOM     50  O   THR A   1       3.744  -6.856  21.561  0.00  0.00    -0.274 OA
ATOM     51  N   GLY A   2       5.520  -8.086  20.950  0.00  0.00    -0.295 N 
ATOM     52  H   GLY A   2       6.183  -8.845  21.205  0.00  0.00    +0.150 HD
BRANCH  49  53
ATOM     53  CA  THR A   1       4.409  -8.613  23.047  0.00  0.00    +0.172 C 
BRANCH  53  54
ATOM     54  N   THR A   1       3.412  -8.001  23.911  0.00  0.00    -0.236 NA
ATOM     55  H   THR A   1       2.715  -7.358  23.485  0.00  0.00    +0.142 HD
ENDBRANCH  53  54
BRANCH  53  56
ATOM     56  CB  THR A   1       4.018 -10.047  22.658  0.00  0.00    +0.135 C 
ATOM     57  CG2 THR A   1       2.813 -10.039  21.725  0.00  0.00    +0.034 C 
BRANCH  56  58
ATOM     58  OG1 THR A   1       5.122 -10.685  22.002  0.00  0.00    -0.383 OA
ATOM     59  HG1 THR A   1       4.867 -11.609  21.753  0.00  0.00    +0.210 HD
ENDBRANCH  56  58
ENDBRANCH  53  56
ENDBRANCH  49  53
ENDBRANCH  48  51
ENDBRANCH  44  48
ENDBRANCH  43  45
BRANCH  43  60
ATOM     60  CB  SER A   3       3.929  -9.514  16.160  0.00  0.00    +0.166 C 
BRANCH  60  61
ATOM     61  OG  SER A   3       3.126 -10.290  15.287  0.00  0.00    -0.380 OA
ATOM     62  H   SER A   3       2.198  -9.945  15.300  0.00  0.00    +0.211 HD
ENDBRANCH  60  61
ENDBRANCH  43  60
ENDBRANCH  39  43
ENDBRANCH  38  40
BRANCH  38  63
ATOM     63  CB  THR A   4      -0.155 -12.618  19.029  0.00  0.00    +0.137 C 
ATOM     64  CG2 THR A   4      -0.347 -11.789  20.284  0.00  0.00    +0.034 C 
BRANCH  63  65
ATOM     65  OG1 THR A   4      -0.978 -12.090  17.983  0.00  0.00    -0.382 OA
ATOM     66  HG1 THR A   4      -0.870 -12.643  17.169  0.00  0.00    +0.210 HD
ENDBRANCH  63  65
ENDBRANCH  38  63
ENDBRANCH   1  38
TORSDOF 28
REMARK  Name = ../refined-set-2016/4xtv/4xtv_pocket.pdb
REMARK  235 active torsions:
REMARK  status: ('A' for Active; 'I' for Inactive)
REMARK    1  A    between atoms: _1  and  _3
REMARK    2  A    between atoms: _3  and  _4
REMARK    3  A    between atoms: _3  and  _6
REMARK    4  A    between atoms: _6  and  _7
REMARK    5  A    between atoms: _10  and  _12
REMARK    6  A    between atoms: _12  and  _13
REMARK    7  A    between atoms: _15  and  _17
REMARK    8  A    between atoms: _17  and  _18
REMARK    9  A    between atoms: _17  and  _20
REMARK   10  A    between atoms: _20  and  _21
REMARK   11  A    between atoms: _23  and  _25
REMARK   12  A    between atoms: _25  and  _26
REMARK   13  A    between atoms: _25  and  _28
REMARK   14  A    between atoms: _28  and  _29
REMARK   15  A    between atoms: _32  and  _34
REMARK   16  A    between atoms: _34  and  _35
REMARK   17  A    between atoms: _34  and  _37
REMARK   18  A    between atoms: _37  and  _38
REMARK   19  A    between atoms: _43  and  _45
REMARK   20  A    between atoms: _45  and  _46
REMARK   21  A    between atoms: _49  and  _51
REMARK   22  A    between atoms: _51  and  _52
REMARK   23  A    between atoms: _51  and  _54
REMARK   24  A    between atoms: _54  and  _55
REMARK   25  A    between atoms: _58  and  _60
REMARK   26  A    between atoms: _60  and  _61
REMARK   27  A    between atoms: _60  and  _63
REMARK   28  A    between atoms: _63  and  _64
REMARK   29  A    between atoms: _67  and  _69
REMARK   30  A    between atoms: _69  and  _70
REMARK   31  A    between atoms: _69  and  _72
REMARK   32  A    between atoms: _72  and  _73
REMARK   33  A    between atoms: _76  and  _78
REMARK   34  A    between atoms: _78  and  _79
REMARK   35  A    between atoms: _82  and  _84
REMARK   36  A    between atoms: _84  and  _85
REMARK   37  A    between atoms: _84  and  _87
REMARK   38  A    between atoms: _87  and  _88
REMARK   39  A    between atoms: _88  and  _89
REMARK   40  A    between atoms: _94  and  _96
REMARK   41  A    between atoms: _96  and  _97
REMARK   42  A    between atoms: _96  and  _99
REMARK   43  A    between atoms: _99  and  _100
REMARK   44  A    between atoms: _103  and  _105
REMARK   45  A    between atoms: _105  and  _106
REMARK   46  A    between atoms: _109  and  _111
REMARK   47  A    between atoms: _111  and  _112
REMARK   48  A    between atoms: _114  and  _116
REMARK   49  A    between atoms: _116  and  _117
REMARK   50  A    between atoms: _116  and  _119
REMARK   51  A    between atoms: _119  and  _120
REMARK   52  A    between atoms: _120  and  _121
REMARK   53  A    between atoms: _121  and  _122
REMARK   54  A    between atoms: _131  and  _133
REMARK   55  A    between atoms: _133  and  _134
REMARK   56  A    between atoms: _136  and  _138
REMARK   57  A    between atoms: _138  and  _139
REMARK   58  A    between atoms: _138  and  _141
REMARK   59  A    between atoms: _141  and  _142
REMARK   60  A    between atoms: _142  and  _143
REMARK   61  A    between atoms: _143  and  _144
REMARK   62  A    between atoms: _153  and  _155
REMARK   63  A    between atoms: _155  and  _156
REMARK   64  A    between atoms: _155  and  _158
REMARK   65  A    between atoms: _158  and  _159
REMARK   66  A    between atoms: _164  and  _166
REMARK   67  A    between atoms: _166  and  _167
REMARK   68  A    between atoms: _169  and  _171
REMARK   69  A    between atoms: _171  and  _172
REMARK   70  A    between atoms: _171  and  _174
REMARK   71  A    between atoms: _174  and  _175
REMARK   72  A    between atoms: _175  and  _176
REMARK   73  A    between atoms: _176  and  _177
REMARK   74  A    between atoms: _186  and  _188
REMARK   75  A    between atoms: _188  and  _189
REMARK   76  A    between atoms: _191  and  _193
REMARK   77  A    between atoms: _193  and  _194
REMARK   78  A    between atoms: _193  and  _196
REMARK   79  A    between atoms: _196  and  _197
REMARK   80  A    between atoms: _207  and  _209
REMARK   81  A    between atoms: _209  and  _210
REMARK   82  A    between atoms: _213  and  _215
REMARK   83  A    between atoms: _215  and  _216
REMARK   84  A    between atoms: _219  and  _221
REMARK   85  A    between atoms: _221  and  _222
REMARK   86  A    between atoms: _221  and  _224
REMARK   87  A    between atoms: _224  and  _225
REMARK   88  A    between atoms: _228  and  _230
REMARK   89  A    between atoms: _230  and  _231
REMARK   90  A    between atoms: _230  and  _233
REMARK   91  A    between atoms: _233  and  _234
REMARK   92  A    between atoms: _234  and  _235
REMARK   93  A    between atoms: _240  and  _242
REMARK   94  A    between atoms: _242  and  _243
REMARK   95  A    between atoms: _242  and  _245
REMARK   96  A    between atoms: _245  and  _246
REMARK   97  A    between atoms: _249  and  _251
REMARK   98  A    between atoms: _251  and  _252
REMARK   99  A    between atoms: _251  and  _254
REMARK  100  A    between atoms: _254  and  _255
REMARK  101  A    between atoms: _258  and  _260
REMARK  102  A    between atoms: _260  and  _261
REMARK  103  A    between atoms: _260  and  _263
REMARK  104  A    between atoms: _263  and  _264
REMARK  105  A    between atoms: _267  and  _269
REMARK  106  A    between atoms: _269  and  _270
REMARK  107  A    between atoms: _269  and  _272
REMARK  108  A    between atoms: _272  and  _273
REMARK  109  A    between atoms: _275  and  _277
REMARK  110  A    between atoms: _277  and  _278
REMARK  111  A    between atoms: _277  and  _280
REMARK  112  A    between atoms: _283  and  _285
REMARK  113  A    between atoms: _285  and  _286
REMARK  114  A    between atoms: _285  and  _288
REMARK  115  A    between atoms: _288  and  _289
REMARK  116  A    between atoms: _289  and  _290
REMARK  117  A    between atoms: _290  and  _291
REMARK  118  A    between atoms: _291  and  _292
REMARK  119  A    between atoms: _296  and  _298
REMARK  120  A    between atoms: _298  and  _299
REMARK  121  A    between atoms: _298  and  _301
REMARK  122  A    between atoms: _301  and  _302
REMARK  123  A    between atoms: _313  and  _314
REMARK  124  A    between atoms: _319  and  _321
REMARK  125  A    between atoms: _321  and  _322
REMARK  126  A    between atoms: _321  and  _324
REMARK  127  A    between atoms: _324  and  _325
REMARK  128  A    between atoms: _330  and  _332
REMARK  129  A    between atoms: _332  and  _333
REMARK  130  A    between atoms: _332  and  _335
REMARK  131  A    between atoms: _335  and  _336
REMARK  132  A    between atoms: _339  and  _341
REMARK  133  A    between atoms: _341  and  _342
REMARK  134  A    between atoms: _341  and  _344
REMARK  135  A    between atoms: _347  and  _349
REMARK  136  A    between atoms: _349  and  _350
REMARK  137  A    between atoms: _352  and  _354
REMARK  138  A    between atoms: _354  and  _355
REMARK  139  A    between atoms: _354  and  _357
REMARK  140  A    between atoms: _357  and  _358
REMARK  141  A    between atoms: _358  and  _359
REMARK  142  A    between atoms: _359  and  _360
REMARK  143  A    between atoms: _360  and  _361
REMARK  144  A    between atoms: _365  and  _367
REMARK  145  A    between atoms: _367  and  _368
REMARK  146  A    between atoms: _367  and  _370
REMARK  147  A    between atoms: _370  and  _371
REMARK  148  A    between atoms: _374  and  _376
REMARK  149  A    between atoms: _376  and  _377
REMARK  150  A    between atoms: _380  and  _382
REMARK  151  A    between atoms: _382  and  _383
REMARK  152  A    between atoms: _385  and  _387
REMARK  153  A    between atoms: _387  and  _388
REMARK  154  A    between atoms: _387  and  _390
REMARK  155  A    between atoms: _390  and  _391
REMARK  156  A    between atoms: _394  and  _396
REMARK  157  A    between atoms: _396  and  _397
REMARK  158  A    between atoms: _396  and  _399
REMARK  159  A    between atoms: _399  and  _400
REMARK  160  A    between atoms: _403  and  _405
REMARK  161  A    between atoms: _405  and  _406
REMARK  162  A    between atoms: _409  and  _411
REMARK  163  A    between atoms: _411  and  _412
REMARK  164  A    between atoms: _411  and  _414
REMARK  165  A    between atoms: _414  and  _415
REMARK  166  A    between atoms: _415  and  _416
REMARK  167  A    between atoms: _419  and  _421
REMARK  168  A    between atoms: _421  and  _422
REMARK  169  A    between atoms: _421  and  _424
REMARK  170  A    between atoms: _427  and  _429
REMARK  171  A    between atoms: _429  and  _430
REMARK  172  A    between atoms: _429  and  _432
REMARK  173  A    between atoms: _432  and  _433
REMARK  174  A    between atoms: _436  and  _438
REMARK  175  A    between atoms: _438  and  _439
REMARK  176  A    between atoms: _441  and  _443
REMARK  177  A    between atoms: _443  and  _444
REMARK  178  A    between atoms: _443  and  _446
REMARK  179  A    between atoms: _449  and  _451
REMARK  180  A    between atoms: _451  and  _452
REMARK  181  A    between atoms: _454  and  _456
REMARK  182  A    between atoms: _456  and  _457
REMARK  183  A    between atoms: _456  and  _459
REMARK  184  A    between atoms: _459  and  _460
REMARK  185  A    between atoms: _463  and  _465
REMARK  186  A    between atoms: _465  and  _466
REMARK  187  A    between atoms: _465  and  _468
REMARK  188  A    between atoms: _468  and  _469
REMARK  189  A    between atoms: _474  and  _476
REMARK  190  A    between atoms: _476  and  _477
REMARK  191  A    between atoms: _476  and  _479
REMARK  192  A    between atoms: _482  and  _484
REMARK  193  A    between atoms: _484  and  _485
REMARK  194  A    between atoms: _484  and  _487
REMARK  195  A    between atoms: _487  and  _488
REMARK  196  A    between atoms: _488  and  _489
REMARK  197  A    between atoms: _494  and  _496
REMARK  198  A    between atoms: _496  and  _497
REMARK  199  A    between atoms: _501  and  _502
REMARK  200  A    between atoms: _507  and  _509
REMARK  201  A    between atoms: _509  and  _510
REMARK  202  A    between atoms: _509  and  _512
REMARK  203  A    between atoms: _512  and  _513
REMARK  204  A    between atoms: _513  and  _514
REMARK  205  A    between atoms: _517  and  _519
REMARK  206  A    between atoms: _519  and  _520
REMARK  207  A    between atoms: _519  and  _522
REMARK  208  A    between atoms: _525  and  _527
REMARK  209  A    between atoms: _527  and  _528
REMARK  210  A    between atoms: _527  and  _530
REMARK  211  A    between atoms: _530  and  _531
REMARK  212  A    between atoms: _535  and  _536
REMARK  213  A    between atoms: _541  and  _543
REMARK  214  A    between atoms: _543  and  _544
REMARK  215  A    between atoms: _543  and  _546
REMARK  216  A    between atoms: _546  and  _547
REMARK  217  A    between atoms: _550  and  _552
REMARK  218  A    between atoms: _552  and  _553
REMARK  219  A    between atoms: _556  and  _558
REMARK  220  A    between atoms: _558  and  _559
REMARK  221  A    between atoms: _558  and  _561
REMARK  222  A    between atoms: _561  and  _562
REMARK  223  A    between atoms: _565  and  _567
REMARK  224  A    between atoms: _567  and  _568
REMARK  225  A    between atoms: _567  and  _570
REMARK  226  A    between atoms: _570  and  _571
REMARK  227  A    between atoms: _573  and  _575
REMARK  228  A    between atoms: _575  and  _576
REMARK  229  A    between atoms: _578  and  _580
REMARK  230  A    between atoms: _580  and  _581
REMARK  231  A    between atoms: _580  and  _583
REMARK  232  A    between atoms: _583  and  _584
REMARK  233  A    between atoms: _587  and  _589
REMARK  234  A    between atoms: _589  and  _590
REMARK  235  A    between atoms: _589  and  _592
REMARK                            x       y       z     vdW  Elec       q    Type
REMARK                         _______ _______ _______ _____ _____    ______ ____
ROOT
ATOM      1  CA  LEU A   1      -2.084 -16.684  22.317  0.00  0.00    +0.133 C 
ENDROOT
BRANCH   1   2
ATOM      2  N   LEU A   1      -2.844 -17.727  21.640  0.00  0.00    -0.239 NA
ATOM      3  H   LEU A   1      -3.102 -17.596  20.641  0.00  0.00    +0.142 HD
ENDBRANCH   1   2
BRANCH   1   4
ATOM      4  C   LEU A   1      -2.816 -15.350  22.218  0.00  0.00    +0.224 C 
ATOM      5  O   LEU A   1      -3.085 -14.860  21.120  0.00  0.00    -0.287 OA
ENDBRANCH   1   4
BRANCH   1   6
ATOM      6  CB  LEU A   1      -0.682 -16.558  21.721  0.00  0.00    +0.025 C 
BRANCH   6   7
ATOM      7  CG  LEU A   1       0.168 -15.404  22.257  0.00  0.00    +0.002 C 
ATOM      8  CD2 LEU A   1       0.426 -15.556  23.753  0.00  0.00    +0.000 C 
ATOM      9  CD1 LEU A   1       1.473 -15.306  21.486  0.00  0.00    +0.000 C 
ENDBRANCH   6   7
ENDBRANCH   1   6
TORSDOF 4
REMARK  Name = ../refined-set-2016/4xtv/4xtv_pocket.pdb
REMARK  235 active torsions:
REMARK  status: ('A' for Active; 'I' for Inactive)
REMARK    1  A    between atoms: _1  and  _3
REMARK    2  A    between atoms: _3  and  _4
REMARK    3  A    between atoms: _3  and  _6
REMARK    4  A    between atoms: _6  and  _7
REMARK    5  A    between atoms: _10  and  _12
REMARK    6  A    between atoms: _12  and  _13
REMARK    7  A    between atoms: _15  and  _17
REMARK    8  A    between atoms: _17  and  _18
REMARK    9  A    between atoms: _17  and  _20
REMARK   10  A    between atoms: _20  and  _21
REMARK   11  A    between atoms: _23  and  _25
REMARK   12  A    between atoms: _25  and  _26
REMARK   13  A    between atoms: _25  and  _28
REMARK   14  A    between atoms: _28  and  _29
REMARK   15  A    between atoms: _32  and  _34
REMARK   16  A    between atoms: _34  and  _35
REMARK   17  A    between atoms: _34  and  _37
REMARK   18  A    between atoms: _37  and  _38
REMARK   19  A    between atoms: _43  and  _45
REMARK   20  A    between atoms: _45  and  _46
REMARK   21  A    between atoms: _49  and  _51
REMARK   22  A    between atoms: _51  and  _52
REMARK   23  A    between atoms: _51  and  _54
REMARK   24  A    between atoms: _54  and  _55
REMARK   25  A    between atoms: _58  and  _60
REMARK   26  A    between atoms: _60  and  _61
REMARK   27  A    between atoms: _60  and  _63
REMARK   28  A    between atoms: _63  and  _64
REMARK   29  A    between atoms: _67  and  _69
REMARK   30  A    between atoms: _69  and  _70
REMARK   31  A    between atoms: _69  and  _72
REMARK   32  A    between atoms: _72  and  _73
REMARK   33  A    between atoms: _76  and  _78
REMARK   34  A    between atoms: _78  and  _79
REMARK   35  A    between atoms: _82  and  _84
REMARK   36  A    between atoms: _84  and  _85
REMARK   37  A    between atoms: _84  and  _87
REMARK   38  A    between atoms: _87  and  _88
REMARK   39  A    between atoms: _88  and  _89
REMARK   40  A    between atoms: _94  and  _96
REMARK   41  A    between atoms: _96  and  _97
REMARK   42  A    between atoms: _96  and  _99
REMARK   43  A    between atoms: _99  and  _100
REMARK   44  A    between atoms: _103  and  _105
REMARK   45  A    between atoms: _105  and  _106
REMARK   46  A    between atoms: _109  and  _111
REMARK   47  A    between atoms: _111  and  _112
REMARK   48  A    between atoms: _114  and  _116
REMARK   49  A    between atoms: _116  and  _117
REMARK   50  A    between atoms: _116  and  _119
REMARK   51  A    between atoms: _119  and  _120
REMARK   52  A    between atoms: _120  and  _121
REMARK   53  A    between atoms: _121  and  _122
REMARK   54  A    between atoms: _131  and  _133
REMARK   55  A    between atoms: _133  and  _134
REMARK   56  A    between atoms: _136  and  _138
REMARK   57  A    between atoms: _138  and  _139
REMARK   58  A    between atoms: _138  and  _141
REMARK   59  A    between atoms: _141  and  _142
REMARK   60  A    between atoms: _142  and  _143
REMARK   61  A    between atoms: _143  and  _144
REMARK   62  A    between atoms: _153  and  _155
REMARK   63  A    between atoms: _155  and  _156
REMARK   64  A    between atoms: _155  and  _158
REMARK   65  A    between atoms: _158  and  _159
REMARK   66  A    between atoms: _164  and  _166
REMARK   67  A    between atoms: _166  and  _167
REMARK   68  A    between atoms: _169  and  _171
REMARK   69  A    between atoms: _171  and  _172
REMARK   70  A    between atoms: _171  and  _174
REMARK   71  A    between atoms: _174  and  _175
REMARK   72  A    between atoms: _175  and  _176
REMARK   73  A    between atoms: _176  and  _177
REMARK   74  A    between atoms: _186  and  _188
REMARK   75  A    between atoms: _188  and  _189
REMARK   76  A    between atoms: _191  and  _193
REMARK   77  A    between atoms: _193  and  _194
REMARK   78  A    between atoms: _193  and  _196
REMARK   79  A    between atoms: _196  and  _197
REMARK   80  A    between atoms: _207  and  _209
REMARK   81  A    between atoms: _209  and  _210
REMARK   82  A    between atoms: _213  and  _215
REMARK   83  A    between atoms: _215  and  _216
REMARK   84  A    between atoms: _219  and  _221
REMARK   85  A    between atoms: _221  and  _222
REMARK   86  A    between atoms: _221  and  _224
REMARK   87  A    between atoms: _224  and  _225
REMARK   88  A    between atoms: _228  and  _230
REMARK   89  A    between atoms: _230  and  _231
REMARK   90  A    between atoms: _230  and  _233
REMARK   91  A    between atoms: _233  and  _234
REMARK   92  A    between atoms: _234  and  _235
REMARK   93  A    between atoms: _240  and  _242
REMARK   94  A    between atoms: _242  and  _243
REMARK   95  A    between atoms: _242  and  _245
REMARK   96  A    between atoms: _245  and  _246
REMARK   97  A    between atoms: _249  and  _251
REMARK   98  A    between atoms: _251  and  _252
REMARK   99  A    between atoms: _251  and  _254
REMARK  100  A    between atoms: _254  and  _255
REMARK  101  A    between atoms: _258  and  _260
REMARK  102  A    between atoms: _260  and  _261
REMARK  103  A    between atoms: _260  and  _263
REMARK  104  A    between atoms: _263  and  _264
REMARK  105  A    between atoms: _267  and  _269
REMARK  106  A    between atoms: _269  and  _270
REMARK  107  A    between atoms: _269  and  _272
REMARK  108  A    between atoms: _272  and  _273
REMARK  109  A    between atoms: _275  and  _277
REMARK  110  A    between atoms: _277  and  _278
REMARK  111  A    between atoms: _277  and  _280
REMARK  112  A    between atoms: _283  and  _285
REMARK  113  A    between atoms: _285  and  _286
REMARK  114  A    between atoms: _285  and  _288
REMARK  115  A    between atoms: _288  and  _289
REMARK  116  A    between atoms: _289  and  _290
REMARK  117  A    between atoms: _290  and  _291
REMARK  118  A    between atoms: _291  and  _292
REMARK  119  A    between atoms: _296  and  _298
REMARK  120  A    between atoms: _298  and  _299
REMARK  121  A    between atoms: _298  and  _301
REMARK  122  A    between atoms: _301  and  _302
REMARK  123  A    between atoms: _313  and  _314
REMARK  124  A    between atoms: _319  and  _321
REMARK  125  A    between atoms: _321  and  _322
REMARK  126  A    between atoms: _321  and  _324
REMARK  127  A    between atoms: _324  and  _325
REMARK  128  A    between atoms: _330  and  _332
REMARK  129  A    between atoms: _332  and  _333
REMARK  130  A    between atoms: _332  and  _335
REMARK  131  A    between atoms: _335  and  _336
REMARK  132  A    between atoms: _339  and  _341
REMARK  133  A    between atoms: _341  and  _342
REMARK  134  A    between atoms: _341  and  _344
REMARK  135  A    between atoms: _347  and  _349
REMARK  136  A    between atoms: _349  and  _350
REMARK  137  A    between atoms: _352  and  _354
REMARK  138  A    between atoms: _354  and  _355
REMARK  139  A    between atoms: _354  and  _357
REMARK  140  A    between atoms: _357  and  _358
REMARK  141  A    between atoms: _358  and  _359
REMARK  142  A    between atoms: _359  and  _360
REMARK  143  A    between atoms: _360  and  _361
REMARK  144  A    between atoms: _365  and  _367
REMARK  145  A    between atoms: _367  and  _368
REMARK  146  A    between atoms: _367  and  _370
REMARK  147  A    between atoms: _370  and  _371
REMARK  148  A    between atoms: _374  and  _376
REMARK  149  A    between atoms: _376  and  _377
REMARK  150  A    between atoms: _380  and  _382
REMARK  151  A    between atoms: _382  and  _383
REMARK  152  A    between atoms: _385  and  _387
REMARK  153  A    between atoms: _387  and  _388
REMARK  154  A    between atoms: _387  and  _390
REMARK  155  A    between atoms: _390  and  _391
REMARK  156  A    between atoms: _394  and  _396
REMARK  157  A    between atoms: _396  and  _397
REMARK  158  A    between atoms: _396  and  _399
REMARK  159  A    between atoms: _399  and  _400
REMARK  160  A    between atoms: _403  and  _405
REMARK  161  A    between atoms: _405  and  _406
REMARK  162  A    between atoms: _409  and  _411
REMARK  163  A    between atoms: _411  and  _412
REMARK  164  A    between atoms: _411  and  _414
REMARK  165  A    between atoms: _414  and  _415
REMARK  166  A    between atoms: _415  and  _416
REMARK  167  A    between atoms: _419  and  _421
REMARK  168  A    between atoms: _421  and  _422
REMARK  169  A    between atoms: _421  and  _424
REMARK  170  A    between atoms: _427  and  _429
REMARK  171  A    between atoms: _429  and  _430
REMARK  172  A    between atoms: _429  and  _432
REMARK  173  A    between atoms: _432  and  _433
REMARK  174  A    between atoms: _436  and  _438
REMARK  175  A    between atoms: _438  and  _439
REMARK  176  A    between atoms: _441  and  _443
REMARK  177  A    between atoms: _443  and  _444
REMARK  178  A    between atoms: _443  and  _446
REMARK  179  A    between atoms: _449  and  _451
REMARK  180  A    between atoms: _451  and  _452
REMARK  181  A    between atoms: _454  and  _456
REMARK  182  A    between atoms: _456  and  _457
REMARK  183  A    between atoms: _456  and  _459
REMARK  184  A    between atoms: _459  and  _460
REMARK  185  A    between atoms: _463  and  _465
REMARK  186  A    between atoms: _465  and  _466
REMARK  187  A    between atoms: _465  and  _468
REMARK  188  A    between atoms: _468  and  _469
REMARK  189  A    between atoms: _474  and  _476
REMARK  190  A    between atoms: _476  and  _477
REMARK  191  A    between atoms: _476  and  _479
REMARK  192  A    between atoms: _482  and  _484
REMARK  193  A    between atoms: _484  and  _485
REMARK  194  A    between atoms: _484  and  _487
REMARK  195  A    between atoms: _487  and  _488
REMARK  196  A    between atoms: _488  and  _489
REMARK  197  A    between atoms: _494  and  _496
REMARK  198  A    between atoms: _496  and  _497
REMARK  199  A    between atoms: _501  and  _502
REMARK  200  A    between atoms: _507  and  _509
REMARK  201  A    between atoms: _509  and  _510
REMARK  202  A    between atoms: _509  and  _512
REMARK  203  A    between atoms: _512  and  _513
REMARK  204  A    between atoms: _513  and  _514
REMARK  205  A    between atoms: _517  and  _519
REMARK  206  A    between atoms: _519  and  _520
REMARK  207  A    between atoms: _519  and  _522
REMARK  208  A    between atoms: _525  and  _527
REMARK  209  A    between atoms: _527  and  _528
REMARK  210  A    between atoms: _527  and  _530
REMARK  211  A    between atoms: _530  and  _531
REMARK  212  A    between atoms: _535  and  _536
REMARK  213  A    between atoms: _541  and  _543
REMARK  214  A    between atoms: _543  and  _544
REMARK  215  A    between atoms: _543  and  _546
REMARK  216  A    between atoms: _546  and  _547
REMARK  217  A    between atoms: _550  and  _552
REMARK  218  A    between atoms: _552  and  _553
REMARK  219  A    between atoms: _556  and  _558
REMARK  220  A    between atoms: _558  and  _559
REMARK  221  A    between atoms: _558  and  _561
REMARK  222  A    between atoms: _561  and  _562
REMARK  223  A    between atoms: _565  and  _567
REMARK  224  A    between atoms: _567  and  _568
REMARK  225  A    between atoms: _567  and  _570
REMARK  226  A    between atoms: _570  and  _571
REMARK  227  A    between atoms: _573  and  _575
REMARK  228  A    between atoms: _575  and  _576
REMARK  229  A    between atoms: _578  and  _580
REMARK  230  A    between atoms: _580  and  _581
REMARK  231  A    between atoms: _580  and  _583
REMARK  232  A    between atoms: _583  and  _584
REMARK  233  A    between atoms: _587  and  _589
REMARK  234  A    between atoms: _589  and  _590
REMARK  235  A    between atoms: _589  and  _592
REMARK                            x       y       z     vdW  Elec       q    Type
REMARK                         _______ _______ _______ _____ _____    ______ ____
ROOT
ATOM      1  CA  ALA A   1      -2.084 -10.182  24.134  0.00  0.00    +0.133 C 
ATOM      2  CB  ALA A   1      -0.959  -9.766  23.202  0.00  0.00    +0.027 C 
ENDROOT
BRANCH   1   3
ATOM      3  N   ALA A   1      -2.872 -11.254  23.537  0.00  0.00    -0.239 NA
ATOM      4  H   ALA A   1      -3.384 -11.079  22.649  0.00  0.00    +0.142 HD
ENDBRANCH   1   3
BRANCH   1   5
ATOM      5  C   ALA A   1      -2.954  -8.983  24.488  0.00  0.00    +0.224 C 
ATOM      6  O   ALA A   1      -3.755  -8.524  23.675  0.00  0.00    -0.287 OA
ENDBRANCH   1   5
TORSDOF 2
REMARK  Name = ../refined-set-2016/4xtv/4xtv_pocket.pdb
REMARK  235 active torsions:
REMARK  status: ('A' for Active; 'I' for Inactive)
REMARK    1  A    between atoms: _1  and  _3
REMARK    2  A    between atoms: _3  and  _4
REMARK    3  A    between atoms: _3  and  _6
REMARK    4  A    between atoms: _6  and  _7
REMARK    5  A    between atoms: _10  and  _12
REMARK    6  A    between atoms: _12  and  _13
REMARK    7  A    between atoms: _15  and  _17
REMARK    8  A    between atoms: _17  and  _18
REMARK    9  A    between atoms: _17  and  _20
REMARK   10  A    between atoms: _20  and  _21
REMARK   11  A    between atoms: _23  and  _25
REMARK   12  A    between atoms: _25  and  _26
REMARK   13  A    between atoms: _25  and  _28
REMARK   14  A    between atoms: _28  and  _29
REMARK   15  A    between atoms: _32  and  _34
REMARK   16  A    between atoms: _34  and  _35
REMARK   17  A    between atoms: _34  and  _37
REMARK   18  A    between atoms: _37  and  _38
REMARK   19  A    between atoms: _43  and  _45
REMARK   20  A    between atoms: _45  and  _46
REMARK   21  A    between atoms: _49  and  _51
REMARK   22  A    between atoms: _51  and  _52
REMARK   23  A    between atoms: _51  and  _54
REMARK   24  A    between atoms: _54  and  _55
REMARK   25  A    between atoms: _58  and  _60
REMARK   26  A    between atoms: _60  and  _61
REMARK   27  A    between atoms: _60  and  _63
REMARK   28  A    between atoms: _63  and  _64
REMARK   29  A    between atoms: _67  and  _69
REMARK   30  A    between atoms: _69  and  _70
REMARK   31  A    between atoms: _69  and  _72
REMARK   32  A    between atoms: _72  and  _73
REMARK   33  A    between atoms: _76  and  _78
REMARK   34  A    between atoms: _78  and  _79
REMARK   35  A    between atoms: _82  and  _84
REMARK   36  A    between atoms: _84  and  _85
REMARK   37  A    between atoms: _84  and  _87
REMARK   38  A    between atoms: _87  and  _88
REMARK   39  A    between atoms: _88  and  _89
REMARK   40  A    between atoms: _94  and  _96
REMARK   41  A    between atoms: _96  and  _97
REMARK   42  A    between atoms: _96  and  _99
REMARK   43  A    between atoms: _99  and  _100
REMARK   44  A    between atoms: _103  and  _105
REMARK   45  A    between atoms: _105  and  _106
REMARK   46  A    between atoms: _109  and  _111
REMARK   47  A    between atoms: _111  and  _112
REMARK   48  A    between atoms: _114  and  _116
REMARK   49  A    between atoms: _116  and  _117
REMARK   50  A    between atoms: _116  and  _119
REMARK   51  A    between atoms: _119  and  _120
REMARK   52  A    between atoms: _120  and  _121
REMARK   53  A    between atoms: _121  and  _122
REMARK   54  A    between atoms: _131  and  _133
REMARK   55  A    between atoms: _133  and  _134
REMARK   56  A    between atoms: _136  and  _138
REMARK   57  A    between atoms: _138  and  _139
REMARK   58  A    between atoms: _138  and  _141
REMARK   59  A    between atoms: _141  and  _142
REMARK   60  A    between atoms: _142  and  _143
REMARK   61  A    between atoms: _143  and  _144
REMARK   62  A    between atoms: _153  and  _155
REMARK   63  A    between atoms: _155  and  _156
REMARK   64  A    between atoms: _155  and  _158
REMARK   65  A    between atoms: _158  and  _159
REMARK   66  A    between atoms: _164  and  _166
REMARK   67  A    between atoms: _166  and  _167
REMARK   68  A    between atoms: _169  and  _171
REMARK   69  A    between atoms: _171  and  _172
REMARK   70  A    between atoms: _171  and  _174
REMARK   71  A    between atoms: _174  and  _175
REMARK   72  A    between atoms: _175  and  _176
REMARK   73  A    between atoms: _176  and  _177
REMARK   74  A    between atoms: _186  and  _188
REMARK   75  A    between atoms: _188  and  _189
REMARK   76  A    between atoms: _191  and  _193
REMARK   77  A    between atoms: _193  and  _194
REMARK   78  A    between atoms: _193  and  _196
REMARK   79  A    between atoms: _196  and  _197
REMARK   80  A    between atoms: _207  and  _209
REMARK   81  A    between atoms: _209  and  _210
REMARK   82  A    between atoms: _213  and  _215
REMARK   83  A    between atoms: _215  and  _216
REMARK   84  A    between atoms: _219  and  _221
REMARK   85  A    between atoms: _221  and  _222
REMARK   86  A    between atoms: _221  and  _224
REMARK   87  A    between atoms: _224  and  _225
REMARK   88  A    between atoms: _228  and  _230
REMARK   89  A    between atoms: _230  and  _231
REMARK   90  A    between atoms: _230  and  _233
REMARK   91  A    between atoms: _233  and  _234
REMARK   92  A    between atoms: _234  and  _235
REMARK   93  A    between atoms: _240  and  _242
REMARK   94  A    between atoms: _242  and  _243
REMARK   95  A    between atoms: _242  and  _245
REMARK   96  A    between atoms: _245  and  _246
REMARK   97  A    between atoms: _249  and  _251
REMARK   98  A    between atoms: _251  and  _252
REMARK   99  A    between atoms: _251  and  _254
REMARK  100  A    between atoms: _254  and  _255
REMARK  101  A    between atoms: _258  and  _260
REMARK  102  A    between atoms: _260  and  _261
REMARK  103  A    between atoms: _260  and  _263
REMARK  104  A    between atoms: _263  and  _264
REMARK  105  A    between atoms: _267  and  _269
REMARK  106  A    between atoms: _269  and  _270
REMARK  107  A    between atoms: _269  and  _272
REMARK  108  A    between atoms: _272  and  _273
REMARK  109  A    between atoms: _275  and  _277
REMARK  110  A    between atoms: _277  and  _278
REMARK  111  A    between atoms: _277  and  _280
REMARK  112  A    between atoms: _283  and  _285
REMARK  113  A    between atoms: _285  and  _286
REMARK  114  A    between atoms: _285  and  _288
REMARK  115  A    between atoms: _288  and  _289
REMARK  116  A    between atoms: _289  and  _290
REMARK  117  A    between atoms: _290  and  _291
REMARK  118  A    between atoms: _291  and  _292
REMARK  119  A    between atoms: _296  and  _298
REMARK  120  A    between atoms: _298  and  _299
REMARK  121  A    between atoms: _298  and  _301
REMARK  122  A    between atoms: _301  and  _302
REMARK  123  A    between atoms: _313  and  _314
REMARK  124  A    between atoms: _319  and  _321
REMARK  125  A    between atoms: _321  and  _322
REMARK  126  A    between atoms: _321  and  _324
REMARK  127  A    between atoms: _324  and  _325
REMARK  128  A    between atoms: _330  and  _332
REMARK  129  A    between atoms: _332  and  _333
REMARK  130  A    between atoms: _332  and  _335
REMARK  131  A    between atoms: _335  and  _336
REMARK  132  A    between atoms: _339  and  _341
REMARK  133  A    between atoms: _341  and  _342
REMARK  134  A    between atoms: _341  and  _344
REMARK  135  A    between atoms: _347  and  _349
REMARK  136  A    between atoms: _349  and  _350
REMARK  137  A    between atoms: _352  and  _354
REMARK  138  A    between atoms: _354  and  _355
REMARK  139  A    between atoms: _354  and  _357
REMARK  140  A    between atoms: _357  and  _358
REMARK  141  A    between atoms: _358  and  _359
REMARK  142  A    between atoms: _359  and  _360
REMARK  143  A    between atoms: _360  and  _361
REMARK  144  A    between atoms: _365  and  _367
REMARK  145  A    between atoms: _367  and  _368
REMARK  146  A    between atoms: _367  and  _370
REMARK  147  A    between atoms: _370  and  _371
REMARK  148  A    between atoms: _374  and  _376
REMARK  149  A    between atoms: _376  and  _377
REMARK  150  A    between atoms: _380  and  _382
REMARK  151  A    between atoms: _382  and  _383
REMARK  152  A    between atoms: _385  and  _387
REMARK  153  A    between atoms: _387  and  _388
REMARK  154  A    between atoms: _387  and  _390
REMARK  155  A    between atoms: _390  and  _391
REMARK  156  A    between atoms: _394  and  _396
REMARK  157  A    between atoms: _396  and  _397
REMARK  158  A    between atoms: _396  and  _399
REMARK  159  A    between atoms: _399  and  _400
REMARK  160  A    between atoms: _403  and  _405
REMARK  161  A    between atoms: _405  and  _406
REMARK  162  A    between atoms: _409  and  _411
REMARK  163  A    between atoms: _411  and  _412
REMARK  164  A    between atoms: _411  and  _414
REMARK  165  A    between atoms: _414  and  _415
REMARK  166  A    between atoms: _415  and  _416
REMARK  167  A    between atoms: _419  and  _421
REMARK  168  A    between atoms: _421  and  _422
REMARK  169  A    between atoms: _421  and  _424
REMARK  170  A    between atoms: _427  and  _429
REMARK  171  A    between atoms: _429  and  _430
REMARK  172  A    between atoms: _429  and  _432
REMARK  173  A    between atoms: _432  and  _433
REMARK  174  A    between atoms: _436  and  _438
REMARK  175  A    between atoms: _438  and  _439
REMARK  176  A    between atoms: _441  and  _443
REMARK  177  A    between atoms: _443  and  _444
REMARK  178  A    between atoms: _443  and  _446
REMARK  179  A    between atoms: _449  and  _451
REMARK  180  A    between atoms: _451  and  _452
REMARK  181  A    between atoms: _454  and  _456
REMARK  182  A    between atoms: _456  and  _457
REMARK  183  A    between atoms: _456  and  _459
REMARK  184  A    between atoms: _459  and  _460
REMARK  185  A    between atoms: _463  and  _465
REMARK  186  A    between atoms: _465  and  _466
REMARK  187  A    between atoms: _465  and  _468
REMARK  188  A    between atoms: _468  and  _469
REMARK  189  A    between atoms: _474  and  _476
REMARK  190  A    between atoms: _476  and  _477
REMARK  191  A    between atoms: _476  and  _479
REMARK  192  A    between atoms: _482  and  _484
REMARK  193  A    between atoms: _484  and  _485
REMARK  194  A    between atoms: _484  and  _487
REMARK  195  A    between atoms: _487  and  _488
REMARK  196  A    between atoms: _488  and  _489
REMARK  197  A    between atoms: _494  and  _496
REMARK  198  A    between atoms: _496  and  _497
REMARK  199  A    between atoms: _501  and  _502
REMARK  200  A    between atoms: _507  and  _509
REMARK  201  A    between atoms: _509  and  _510
REMARK  202  A    between atoms: _509  and  _512
REMARK  203  A    between atoms: _512  and  _513
REMARK  204  A    between atoms: _513  and  _514
REMARK  205  A    between atoms: _517  and  _519
REMARK  206  A    between atoms: _519  and  _520
REMARK  207  A    between atoms: _519  and  _522
REMARK  208  A    between atoms: _525  and  _527
REMARK  209  A    between atoms: _527  and  _528
REMARK  210  A    between atoms: _527  and  _530
REMARK  211  A    between atoms: _530  and  _531
REMARK  212  A    between atoms: _535  and  _536
REMARK  213  A    between atoms: _541  and  _543
REMARK  214  A    between atoms: _543  and  _544
REMARK  215  A    between atoms: _543  and  _546
REMARK  216  A    between atoms: _546  and  _547
REMARK  217  A    between atoms: _550  and  _552
REMARK  218  A    between atoms: _552  and  _553
REMARK  219  A    between atoms: _556  and  _558
REMARK  220  A    between atoms: _558  and  _559
REMARK  221  A    between atoms: _558  and  _561
REMARK  222  A    between atoms: _561  and  _562
REMARK  223  A    between atoms: _565  and  _567
REMARK  224  A    between atoms: _567  and  _568
REMARK  225  A    between atoms: _567  and  _570
REMARK  226  A    between atoms: _570  and  _571
REMARK  227  A    between atoms: _573  and  _575
REMARK  228  A    between atoms: _575  and  _576
REMARK  229  A    between atoms: _578  and  _580
REMARK  230  A    between atoms: _580  and  _581
REMARK  231  A    between atoms: _580  and  _583
REMARK  232  A    between atoms: _583  and  _584
REMARK  233  A    between atoms: _587  and  _589
REMARK  234  A    between atoms: _589  and  _590
REMARK  235  A    between atoms: _589  and  _592
REMARK                            x       y       z     vdW  Elec       q    Type
REMARK                         _______ _______ _______ _____ _____    ______ ____
ROOT
ATOM      1  C   ARG A   7       0.408  -6.984   4.583  0.00  0.00    +0.241 C 
ATOM      2  O   ARG A   7       0.521  -5.772   4.772  0.00  0.00    -0.273 OA
ATOM      3  N   HIS A   8       1.163  -7.671   3.732  0.00  0.00    -0.297 N 
ATOM      4  H   HIS A   8       1.105  -8.709   3.743  0.00  0.00    +0.150 HD
ENDROOT
BRANCH   3   5
ATOM      5  CA  HIS A   8       2.071  -7.032   2.782  0.00  0.00    +0.155 C 
BRANCH   5   6
ATOM      6  C   HIS A   8       3.048  -6.049   3.425  0.00  0.00    +0.241 C 
ATOM      7  N   GLY A   9       3.615  -6.442   4.562  0.00  0.00    -0.295 N 
ATOM      8  H   GLY A   9       3.318  -7.342   4.990  0.00  0.00    +0.150 HD
ATOM      9  O   HIS A   8       3.275  -4.957   2.905  0.00  0.00    -0.273 OA
BRANCH   7  10
ATOM     10  CA  GLY A   9       4.637  -5.650   5.222  0.00  0.00    +0.176 C 
BRANCH  10  11
ATOM     11  C   GLY A   9       4.127  -4.415   5.941  0.00  0.00    +0.243 C 
ATOM     12  O   GLY A   9       4.915  -3.593   6.406  0.00  0.00    -0.273 OA
ATOM     13  N   ARG A  10       2.809  -4.277   6.034  0.00  0.00    -0.297 N 
ATOM     14  H   ARG A  10       2.188  -4.982   5.588  0.00  0.00    +0.150 HD
BRANCH  13  15
ATOM     15  CA  ARG A  10       2.220  -3.153   6.751  0.00  0.00    +0.149 C 
BRANCH  15  16
ATOM     16  C   ARG A  10       2.136  -3.459   8.240  0.00  0.00    +0.241 C 
ATOM     17  N   GLY A  11       1.644  -2.501   9.017  0.00  0.00    -0.295 N 
ATOM     18  H   GLY A  11       1.285  -1.625   8.588  0.00  0.00    +0.150 HD
ATOM     19  O   ARG A  10       2.515  -4.543   8.679  0.00  0.00    -0.273 OA
BRANCH  17  20
ATOM     20  CA  GLY A  11       1.602  -2.663  10.457  0.00  0.00    +0.176 C 
BRANCH  20  21
ATOM     21  C   GLY A  11       0.207  -2.833  11.025  0.00  0.00    +0.243 C 
ATOM     22  N   TRP A  12       0.137  -2.970  12.343  0.00  0.00    -0.297 N 
ATOM     23  H   TRP A  12       1.017  -3.082  12.886  0.00  0.00    +0.150 HD
ATOM     24  O   GLY A  11      -0.782  -2.858  10.294  0.00  0.00    -0.273 OA
BRANCH  22  25
ATOM     25  CA  TRP A  12      -1.134  -2.968  13.052  0.00  0.00    +0.153 C 
BRANCH  25  26
ATOM     26  C   TRP A  12      -0.940  -2.220  14.360  0.00  0.00    +0.241 C 
ATOM     27  O   TRP A  12      -0.034  -2.535  15.130  0.00  0.00    -0.273 OA
ATOM     28  N   ALA A  13      -1.782  -1.223  14.604  0.00  0.00    -0.297 N 
ATOM     29  H   ALA A  13      -2.558  -1.039  13.936  0.00  0.00    +0.150 HD
BRANCH  28  30
ATOM     30  CA  ALA A  13      -1.645  -0.381  15.785  0.00  0.00    +0.149 C 
ATOM     31  CB  ALA A  13      -1.833   1.086  15.415  0.00  0.00    +0.031 C 
BRANCH  30  32
ATOM     32  C   ALA A  13      -2.626  -0.784  16.880  0.00  0.00    +0.241 C 
ATOM     33  N   ALA A  14      -2.228  -0.566  18.129  0.00  0.00    -0.297 N 
ATOM     34  H   ALA A  14      -1.298  -0.131  18.294  0.00  0.00    +0.150 HD
ATOM     35  O   ALA A  13      -3.718  -1.282  16.600  0.00  0.00    -0.273 OA
BRANCH  33  36
ATOM     36  CA  ALA A  14      -3.058  -0.920  19.274  0.00  0.00    +0.149 C 
ATOM     37  CB  ALA A  14      -2.978  -2.419  19.542  0.00  0.00    +0.031 C 
BRANCH  36  38
ATOM     38  C   ALA A  14      -2.643  -0.149  20.516  0.00  0.00    +0.241 C 
ATOM     39  N   THR A  15      -3.588   0.019  21.434  0.00  0.00    -0.296 N 
ATOM     40  H   THR A  15      -4.579  -0.164  21.177  0.00  0.00    +0.150 HD
ATOM     41  O   ALA A  14      -1.503   0.297  20.632  0.00  0.00    -0.273 OA
BRANCH  39  42
ATOM     42  CA  THR A  15      -3.279   0.452  22.789  0.00  0.00    +0.164 C 
BRANCH  42  43
ATOM     43  C   THR A  15      -3.795  -0.624  23.741  0.00  0.00    +0.229 C 
ATOM     44  O   THR A  15      -4.658  -1.424  23.370  0.00  0.00    -0.286 OA
ENDBRANCH  42  43
BRANCH  42  45
ATOM     45  CB  THR A  15      -3.899   1.826  23.129  0.00  0.00    +0.136 C 
ATOM     46  CG2 THR A  15      -3.409   2.899  22.158  0.00  0.00    +0.034 C 
BRANCH  45  47
ATOM     47  OG1 THR A  15      -5.328   1.743  23.070  0.00  0.00    -0.382 OA
ATOM     48  HG1 THR A  15      -5.718   2.626  23.289  0.00  0.00    +0.210 HD
ENDBRANCH  45  47
ENDBRANCH  42  45
ENDBRANCH  39  42
ENDBRANCH  36  38
ENDBRANCH  33  36
ENDBRANCH  30  32
ENDBRANCH  28  30
ENDBRANCH  25  26
BRANCH  25  49
ATOM     49  CB  TRP A  12      -1.617  -4.394  13.322  0.00  0.00    +0.057 C 
BRANCH  49  50
ATOM     50  CG  TRP A  12      -3.011  -4.454  13.880  0.00  0.00    -0.002 A 
ATOM     51  CD1 TRP A  12      -3.366  -4.665  15.180  0.00  0.00    +0.068 A 
ATOM     52  NE1 TRP A  12      -4.735  -4.653  15.307  0.00  0.00    -0.352 N 
ATOM     53  HE1 TRP A  12      -5.262  -4.798  16.192  0.00  0.00    +0.166 HD
ATOM     54  CE2 TRP A  12      -5.292  -4.419  14.077  0.00  0.00    +0.056 A 
ATOM     55  CZ2 TRP A  12      -6.630  -4.314  13.702  0.00  0.00    +0.017 A 
ATOM     56  CH2 TRP A  12      -6.898  -4.076  12.381  0.00  0.00    +0.001 A 
ATOM     57  CZ3 TRP A  12      -5.870  -3.939  11.439  0.00  0.00    +0.000 A 
ATOM     58  CE3 TRP A  12      -4.541  -4.039  11.810  0.00  0.00    +0.001 A 
ATOM     59  CD2 TRP A  12      -4.236  -4.287  13.153  0.00  0.00    +0.013 A 
ENDBRANCH  49  50
ENDBRANCH  25  49
ENDBRANCH  22  25
ENDBRANCH  20  21
ENDBRANCH  17  20
ENDBRANCH  15  16
BRANCH  15  60
ATOM     60  CB  ARG A  10       0.840  -2.807   6.188  0.00  0.00    +0.033 C 
BRANCH  60  61
ATOM     61  CG  ARG A  10       0.879  -2.202   4.791  0.00  0.00    +0.045 C 
BRANCH  61  62
ATOM     62  CD  ARG A  10      -0.502  -1.742   4.348  0.00  0.00    +0.174 C 
BRANCH  62  63
ATOM     63  NE  ARG A  10      -1.372  -2.863   4.006  0.00  0.00    -0.265 N 
ATOM     64  HE  ARG A  10      -1.718  -3.464   4.781  0.00  0.00    +0.259 HD
ATOM     65  CZ  ARG A  10      -1.751  -3.165   2.769  0.00  0.00    +0.342 C 
ATOM     66  NH2 ARG A  10      -2.544  -4.205   2.552  0.00  0.00    -0.292 N 
ATOM     67 HH21 ARG A  10      -2.870  -4.786   3.351  0.00  0.00    +0.255 HD
ATOM     68 HH22 ARG A  10      -2.840  -4.440   1.583  0.00  0.00    +0.255 HD
ATOM     69  NH1 ARG A  10      -1.344  -2.425   1.747  0.00  0.00    -0.292 N 
ATOM     70 HH11 ARG A  10      -0.726  -1.605   1.912  0.00  0.00    +0.255 HD
ATOM     71 HH12 ARG A  10      -1.643  -2.664   0.780  0.00  0.00    +0.255 HD
ENDBRANCH  62  63
ENDBRANCH  61  62
ENDBRANCH  60  61
ENDBRANCH  15  60
ENDBRANCH  13  15
ENDBRANCH  10  11
ENDBRANCH   7  10
ENDBRANCH   5   6
BRANCH   5  72
ATOM     72  CB  HIS A   8       1.269  -6.345   1.673  0.00  0.00    +0.076 C 
BRANCH  72  73
ATOM     73  CG  HIS A   8       0.283  -7.248   0.999  0.00  0.00    +0.082 A 
ATOM     74  CD2 HIS A   8      -1.069  -7.204   0.936  0.00  0.00    +0.115 A 
ATOM     75  NE2 HIS A   8      -1.475  -8.284   0.189  0.00  0.00    -0.221 NA
ATOM     76  CE1 HIS A   8      -0.411  -8.967  -0.192  0.00  0.00    +0.199 A 
ATOM     77  ND1 HIS A   8       0.664  -8.363   0.285  0.00  0.00    -0.227 NA
ENDBRANCH  72  73
ENDBRANCH   5  72
ENDBRANCH   3   5
BRANCH   1  78
ATOM     78  CA  ARG A   7      -0.631  -7.796   5.343  0.00  0.00    +0.149 C 
BRANCH  78  81
ATOM     79  C   GLY A   6      -0.094  -7.052   7.587  0.00  0.00    +0.243 C 
ATOM     80  O   GLY A   6       1.024  -7.566   7.533  0.00  0.00    -0.273 OA
ATOM     81  N   ARG A   7      -0.978  -7.147   6.600  0.00  0.00    -0.297 N 
ATOM     82  H   ARG A   7      -1.932  -6.752   6.727  0.00  0.00    +0.150 HD
BRANCH  79  83
ATOM     83  CA  GLY A   6      -0.519  -6.275   8.818  0.00  0.00    +0.176 C 
BRANCH  83  86
ATOM     84  C   ARG A   5       0.593  -6.881  10.893  0.00  0.00    +0.241 C 
ATOM     85  O   ARG A   5      -0.408  -7.429  11.354  0.00  0.00    -0.273 OA
ATOM     86  N   GLY A   6       0.598  -6.222   9.740  0.00  0.00    -0.295 N 
ATOM     87  H   GLY A   6       1.430  -5.650   9.491  0.00  0.00    +0.150 HD
BRANCH  84  88
ATOM     88  CA  ARG A   5       1.922  -6.941  11.628  0.00  0.00    +0.149 C 
BRANCH  88  90
ATOM     89  C   GLY A   4       2.133  -5.598  13.650  0.00  0.00    +0.243 C 
ATOM     90  N   ARG A   5       1.745  -6.720  13.055  0.00  0.00    -0.297 N 
ATOM     91  H   ARG A   5       1.300  -7.465  13.628  0.00  0.00    +0.150 HD
ATOM     92  O   GLY A   4       2.675  -4.668  13.051  0.00  0.00    -0.273 OA
BRANCH  89  93
ATOM     93  CA  GLY A   4       1.868  -5.522  15.140  0.00  0.00    +0.176 C 
BRANCH  93  95
ATOM     94  C   ALA A   3       4.121  -5.018  15.906  0.00  0.00    +0.241 C 
ATOM     95  N   GLY A   4       2.826  -4.720  15.879  0.00  0.00    -0.295 N 
ATOM     96  H   GLY A   4       2.489  -3.887  16.403  0.00  0.00    +0.150 HD
ATOM     97  O   ALA A   3       4.614  -5.934  15.250  0.00  0.00    -0.273 OA
BRANCH  94  98
ATOM     98  CA  ALA A   3       4.984  -4.151  16.818  0.00  0.00    +0.149 C 
ATOM     99  CB  ALA A   3       6.415  -4.677  16.869  0.00  0.00    +0.031 C 
BRANCH  98 102
ATOM    100  C   THR A   2       4.375  -2.961  18.850  0.00  0.00    +0.243 C 
ATOM    101  O   THR A   2       4.836  -1.904  18.416  0.00  0.00    -0.273 OA
ATOM    102  N   ALA A   3       4.410  -4.094  18.159  0.00  0.00    -0.297 N 
ATOM    103  H   ALA A   3       4.020  -4.960  18.582  0.00  0.00    +0.150 HD
BRANCH 100 104
ATOM    104  CA  THR A   2       3.736  -3.011  20.237  0.00  0.00    +0.176 C 
BRANCH 104 106
ATOM    105  C   GLN A   1       1.597  -4.172  20.443  0.00  0.00    +0.238 C 
ATOM    106  N   THR A   2       2.925  -4.198  20.517  0.00  0.00    -0.295 N 
ATOM    107  H   THR A   2       3.400  -5.085  20.781  0.00  0.00    +0.150 HD
ATOM    108  O   GLN A   1       0.973  -3.247  19.925  0.00  0.00    -0.274 OA
BRANCH 105 109
ATOM    109  CA  GLN A   1       0.862  -5.366  21.040  0.00  0.00    +0.145 C 
BRANCH 109 110
ATOM    110  N   GLN A   1      -0.019  -4.902  22.104  0.00  0.00    -0.238 NA
ATOM    111  H   GLN A   1      -0.558  -4.024  21.964  0.00  0.00    +0.142 HD
ENDBRANCH 109 110
BRANCH 109 112
ATOM    112  CB  GLN A   1       0.052  -6.093  19.966  0.00  0.00    +0.036 C 
BRANCH 112 113
ATOM    113  CG  GLN A   1       0.887  -6.840  18.945  0.00  0.00    +0.087 C 
BRANCH 113 114
ATOM    114  CD  GLN A   1       0.037  -7.603  17.945  0.00  0.00    +0.219 C 
ATOM    115  OE1 GLN A   1       0.047  -8.835  17.914  0.00  0.00    -0.275 OA
ATOM    116  NE2 GLN A   1      -0.706  -6.873  17.121  0.00  0.00    -0.329 N 
ATOM    117 HE21 GLN A   1      -0.684  -5.835  17.182  0.00  0.00    +0.145 HD
ATOM    118 HE22 GLN A   1      -1.310  -7.339  16.414  0.00  0.00    +0.145 HD
ENDBRANCH 113 114
ENDBRANCH 112 113
ENDBRANCH 109 112
ENDBRANCH 105 109
ENDBRANCH 104 106
BRANCH 104 119
ATOM    119  CB  THR A   2       4.839  -2.833  21.297  0.00  0.00    +0.137 C 
ATOM    120  CG2 THR A   2       4.221  -2.700  22.678  0.00  0.00    +0.034 C 
BRANCH 119 121
ATOM    121  OG1 THR A   2       5.711  -3.969  21.279  0.00  0.00    -0.382 OA
ATOM    122  HG1 THR A   2       6.125  -4.052  20.384  0.00  0.00    +0.210 HD
ENDBRANCH 119 121
ENDBRANCH 104 119
ENDBRANCH 100 104
ENDBRANCH  98 102
ENDBRANCH  94  98
ENDBRANCH  93  95
ENDBRANCH  89  93
ENDBRANCH  88  90
BRANCH  88 123
ATOM    123  CB  ARG A   5       2.536  -8.316  11.373  0.00  0.00    +0.033 C 
BRANCH 123 124
ATOM    124  CG  ARG A   5       3.902  -8.555  11.984  0.00  0.00    +0.045 C 
BRANCH 124 125
ATOM    125  CD  ARG A   5       4.275 -10.014  11.782  0.00  0.00    +0.174 C 
BRANCH 125 126
ATOM    126  NE  ARG A   5       5.673 -10.306  12.074  0.00  0.00    -0.265 N 
ATOM    127  HE  ARG A   5       6.273  -9.533  12.427  0.00  0.00    +0.259 HD
ATOM    128  CZ  ARG A   5       6.223 -11.506  11.914  0.00  0.00    +0.342 C 
ATOM    129  NH2 ARG A   5       7.503 -11.700  12.198  0.00  0.00    -0.292 N 
ATOM    130 HH21 ARG A   5       8.083 -10.911  12.548  0.00  0.00    +0.255 HD
ATOM    131 HH22 ARG A   5       7.927 -12.641  12.071  0.00  0.00    +0.255 HD
ATOM    132  NH1 ARG A   5       5.487 -12.514  11.467  0.00  0.00    -0.292 N 
ATOM    133 HH11 ARG A   5       5.914 -13.454  11.341  0.00  0.00    +0.255 HD
ATOM    134 HH12 ARG A   5       4.482 -12.365  11.243  0.00  0.00    +0.255 HD
ENDBRANCH 125 126
ENDBRANCH 124 125
ENDBRANCH 123 124
ENDBRANCH  88 123
ENDBRANCH  84  88
ENDBRANCH  83  86
ENDBRANCH  79  83
ENDBRANCH  78  81
BRANCH  78 135
ATOM    135  CB  ARG A   7      -1.867  -7.964   4.459  0.00  0.00    +0.033 C 
BRANCH 135 136
ATOM    136  CG  ARG A   7      -2.870  -8.983   4.948  0.00  0.00    +0.045 C 
BRANCH 136 137
ATOM    137  CD  ARG A   7      -4.055  -9.053   3.997  0.00  0.00    +0.174 C 
BRANCH 137 138
ATOM    138  NE  ARG A   7      -4.661  -7.741   3.781  0.00  0.00    -0.265 N 
ATOM    139  HE  ARG A   7      -4.965  -7.204   4.618  0.00  0.00    +0.259 HD
ATOM    140  CZ  ARG A   7      -4.850  -7.186   2.587  0.00  0.00    +0.342 C 
ATOM    141  NH2 ARG A   7      -5.409  -5.987   2.494  0.00  0.00    -0.292 N 
ATOM    142 HH21 ARG A   7      -5.700  -5.481   3.355  0.00  0.00    +0.255 HD
ATOM    143 HH22 ARG A   7      -5.557  -5.553   1.560  0.00  0.00    +0.255 HD
ATOM    144  NH1 ARG A   7      -4.488  -7.831   1.486  0.00  0.00    -0.292 N 
ATOM    145 HH11 ARG A   7      -4.055  -8.774   1.554  0.00  0.00    +0.255 HD
ATOM    146 HH12 ARG A   7      -4.637  -7.394   0.554  0.00  0.00    +0.255 HD
ENDBRANCH 137 138
ENDBRANCH 136 137
ENDBRANCH 135 136
ENDBRANCH  78 135
ENDBRANCH   1  78
TORSDOF 53
REMARK  Name = ../refined-set-2016/4xtv/4xtv_pocket.pdb
REMARK  235 active torsions:
REMARK  status: ('A' for Active; 'I' for Inactive)
REMARK    1  A    between atoms: _1  and  _3
REMARK    2  A    between atoms: _3  and  _4
REMARK    3  A    between atoms: _3  and  _6
REMARK    4  A    between atoms: _6  and  _7
REMARK    5  A    between atoms: _10  and  _12
REMARK    6  A    between atoms: _12  and  _13
REMARK    7  A    between atoms: _15  and  _17
REMARK    8  A    between atoms: _17  and  _18
REMARK    9  A    between atoms: _17  and  _20
REMARK   10  A    between atoms: _20  and  _21
REMARK   11  A    between atoms: _23  and  _25
REMARK   12  A    between atoms: _25  and  _26
REMARK   13  A    between atoms: _25  and  _28
REMARK   14  A    between atoms: _28  and  _29
REMARK   15  A    between atoms: _32  and  _34
REMARK   16  A    between atoms: _34  and  _35
REMARK   17  A    between atoms: _34  and  _37
REMARK   18  A    between atoms: _37  and  _38
REMARK   19  A    between atoms: _43  and  _45
REMARK   20  A    between atoms: _45  and  _46
REMARK   21  A    between atoms: _49  and  _51
REMARK   22  A    between atoms: _51  and  _52
REMARK   23  A    between atoms: _51  and  _54
REMARK   24  A    between atoms: _54  and  _55
REMARK   25  A    between atoms: _58  and  _60
REMARK   26  A    between atoms: _60  and  _61
REMARK   27  A    between atoms: _60  and  _63
REMARK   28  A    between atoms: _63  and  _64
REMARK   29  A    between atoms: _67  and  _69
REMARK   30  A    between atoms: _69  and  _70
REMARK   31  A    between atoms: _69  and  _72
REMARK   32  A    between atoms: _72  and  _73
REMARK   33  A    between atoms: _76  and  _78
REMARK   34  A    between atoms: _78  and  _79
REMARK   35  A    between atoms: _82  and  _84
REMARK   36  A    between atoms: _84  and  _85
REMARK   37  A    between atoms: _84  and  _87
REMARK   38  A    between atoms: _87  and  _88
REMARK   39  A    between atoms: _88  and  _89
REMARK   40  A    between atoms: _94  and  _96
REMARK   41  A    between atoms: _96  and  _97
REMARK   42  A    between atoms: _96  and  _99
REMARK   43  A    between atoms: _99  and  _100
REMARK   44  A    between atoms: _103  and  _105
REMARK   45  A    between atoms: _105  and  _106
REMARK   46  A    between atoms: _109  and  _111
REMARK   47  A    between atoms: _111  and  _112
REMARK   48  A    between atoms: _114  and  _116
REMARK   49  A    between atoms: _116  and  _117
REMARK   50  A    between atoms: _116  and  _119
REMARK   51  A    between atoms: _119  and  _120
REMARK   52  A    between atoms: _120  and  _121
REMARK   53  A    between atoms: _121  and  _122
REMARK   54  A    between atoms: _131  and  _133
REMARK   55  A    between atoms: _133  and  _134
REMARK   56  A    between atoms: _136  and  _138
REMARK   57  A    between atoms: _138  and  _139
REMARK   58  A    between atoms: _138  and  _141
REMARK   59  A    between atoms: _141  and  _142
REMARK   60  A    between atoms: _142  and  _143
REMARK   61  A    between atoms: _143  and  _144
REMARK   62  A    between atoms: _153  and  _155
REMARK   63  A    between atoms: _155  and  _156
REMARK   64  A    between atoms: _155  and  _158
REMARK   65  A    between atoms: _158  and  _159
REMARK   66  A    between atoms: _164  and  _166
REMARK   67  A    between atoms: _166  and  _167
REMARK   68  A    between atoms: _169  and  _171
REMARK   69  A    between atoms: _171  and  _172
REMARK   70  A    between atoms: _171  and  _174
REMARK   71  A    between atoms: _174  and  _175
REMARK   72  A    between atoms: _175  and  _176
REMARK   73  A    between atoms: _176  and  _177
REMARK   74  A    between atoms: _186  and  _188
REMARK   75  A    between atoms: _188  and  _189
REMARK   76  A    between atoms: _191  and  _193
REMARK   77  A    between atoms: _193  and  _194
REMARK   78  A    between atoms: _193  and  _196
REMARK   79  A    between atoms: _196  and  _197
REMARK   80  A    between atoms: _207  and  _209
REMARK   81  A    between atoms: _209  and  _210
REMARK   82  A    between atoms: _213  and  _215
REMARK   83  A    between atoms: _215  and  _216
REMARK   84  A    between atoms: _219  and  _221
REMARK   85  A    between atoms: _221  and  _222
REMARK   86  A    between atoms: _221  and  _224
REMARK   87  A    between atoms: _224  and  _225
REMARK   88  A    between atoms: _228  and  _230
REMARK   89  A    between atoms: _230  and  _231
REMARK   90  A    between atoms: _230  and  _233
REMARK   91  A    between atoms: _233  and  _234
REMARK   92  A    between atoms: _234  and  _235
REMARK   93  A    between atoms: _240  and  _242
REMARK   94  A    between atoms: _242  and  _243
REMARK   95  A    between atoms: _242  and  _245
REMARK   96  A    between atoms: _245  and  _246
REMARK   97  A    between atoms: _249  and  _251
REMARK   98  A    between atoms: _251  and  _252
REMARK   99  A    between atoms: _251  and  _254
REMARK  100  A    between atoms: _254  and  _255
REMARK  101  A    between atoms: _258  and  _260
REMARK  102  A    between atoms: _260  and  _261
REMARK  103  A    between atoms: _260  and  _263
REMARK  104  A    between atoms: _263  and  _264
REMARK  105  A    between atoms: _267  and  _269
REMARK  106  A    between atoms: _269  and  _270
REMARK  107  A    between atoms: _269  and  _272
REMARK  108  A    between atoms: _272  and  _273
REMARK  109  A    between atoms: _275  and  _277
REMARK  110  A    between atoms: _277  and  _278
REMARK  111  A    between atoms: _277  and  _280
REMARK  112  A    between atoms: _283  and  _285
REMARK  113  A    between atoms: _285  and  _286
REMARK  114  A    between atoms: _285  and  _288
REMARK  115  A    between atoms: _288  and  _289
REMARK  116  A    between atoms: _289  and  _290
REMARK  117  A    between atoms: _290  and  _291
REMARK  118  A    between atoms: _291  and  _292
REMARK  119  A    between atoms: _296  and  _298
REMARK  120  A    between atoms: _298  and  _299
REMARK  121  A    between atoms: _298  and  _301
REMARK  122  A    between atoms: _301  and  _302
REMARK  123  A    between atoms: _313  and  _314
REMARK  124  A    between atoms: _319  and  _321
REMARK  125  A    between atoms: _321  and  _322
REMARK  126  A    between atoms: _321  and  _324
REMARK  127  A    between atoms: _324  and  _325
REMARK  128  A    between atoms: _330  and  _332
REMARK  129  A    between atoms: _332  and  _333
REMARK  130  A    between atoms: _332  and  _335
REMARK  131  A    between atoms: _335  and  _336
REMARK  132  A    between atoms: _339  and  _341
REMARK  133  A    between atoms: _341  and  _342
REMARK  134  A    between atoms: _341  and  _344
REMARK  135  A    between atoms: _347  and  _349
REMARK  136  A    between atoms: _349  and  _350
REMARK  137  A    between atoms: _352  and  _354
REMARK  138  A    between atoms: _354  and  _355
REMARK  139  A    between atoms: _354  and  _357
REMARK  140  A    between atoms: _357  and  _358
REMARK  141  A    between atoms: _358  and  _359
REMARK  142  A    between atoms: _359  and  _360
REMARK  143  A    between atoms: _360  and  _361
REMARK  144  A    between atoms: _365  and  _367
REMARK  145  A    between atoms: _367  and  _368
REMARK  146  A    between atoms: _367  and  _370
REMARK  147  A    between atoms: _370  and  _371
REMARK  148  A    between atoms: _374  and  _376
REMARK  149  A    between atoms: _376  and  _377
REMARK  150  A    between atoms: _380  and  _382
REMARK  151  A    between atoms: _382  and  _383
REMARK  152  A    between atoms: _385  and  _387
REMARK  153  A    between atoms: _387  and  _388
REMARK  154  A    between atoms: _387  and  _390
REMARK  155  A    between atoms: _390  and  _391
REMARK  156  A    between atoms: _394  and  _396
REMARK  157  A    between atoms: _396  and  _397
REMARK  158  A    between atoms: _396  and  _399
REMARK  159  A    between atoms: _399  and  _400
REMARK  160  A    between atoms: _403  and  _405
REMARK  161  A    between atoms: _405  and  _406
REMARK  162  A    between atoms: _409  and  _411
REMARK  163  A    between atoms: _411  and  _412
REMARK  164  A    between atoms: _411  and  _414
REMARK  165  A    between atoms: _414  and  _415
REMARK  166  A    between atoms: _415  and  _416
REMARK  167  A    between atoms: _419  and  _421
REMARK  168  A    between atoms: _421  and  _422
REMARK  169  A    between atoms: _421  and  _424
REMARK  170  A    between atoms: _427  and  _429
REMARK  171  A    between atoms: _429  and  _430
REMARK  172  A    between atoms: _429  and  _432
REMARK  173  A    between atoms: _432  and  _433
REMARK  174  A    between atoms: _436  and  _438
REMARK  175  A    between atoms: _438  and  _439
REMARK  176  A    between atoms: _441  and  _443
REMARK  177  A    between atoms: _443  and  _444
REMARK  178  A    between atoms: _443  and  _446
REMARK  179  A    between atoms: _449  and  _451
REMARK  180  A    between atoms: _451  and  _452
REMARK  181  A    between atoms: _454  and  _456
REMARK  182  A    between atoms: _456  and  _457
REMARK  183  A    between atoms: _456  and  _459
REMARK  184  A    between atoms: _459  and  _460
REMARK  185  A    between atoms: _463  and  _465
REMARK  186  A    between atoms: _465  and  _466
REMARK  187  A    between atoms: _465  and  _468
REMARK  188  A    between atoms: _468  and  _469
REMARK  189  A    between atoms: _474  and  _476
REMARK  190  A    between atoms: _476  and  _477
REMARK  191  A    between atoms: _476  and  _479
REMARK  192  A    between atoms: _482  and  _484
REMARK  193  A    between atoms: _484  and  _485
REMARK  194  A    between atoms: _484  and  _487
REMARK  195  A    between atoms: _487  and  _488
REMARK  196  A    between atoms: _488  and  _489
REMARK  197  A    between atoms: _494  and  _496
REMARK  198  A    between atoms: _496  and  _497
REMARK  199  A    between atoms: _501  and  _502
REMARK  200  A    between atoms: _507  and  _509
REMARK  201  A    between atoms: _509  and  _510
REMARK  202  A    between atoms: _509  and  _512
REMARK  203  A    between atoms: _512  and  _513
REMARK  204  A    between atoms: _513  and  _514
REMARK  205  A    between atoms: _517  and  _519
REMARK  206  A    between atoms: _519  and  _520
REMARK  207  A    between atoms: _519  and  _522
REMARK  208  A    between atoms: _525  and  _527
REMARK  209  A    between atoms: _527  and  _528
REMARK  210  A    between atoms: _527  and  _530
REMARK  211  A    between atoms: _530  and  _531
REMARK  212  A    between atoms: _535  and  _536
REMARK  213  A    between atoms: _541  and  _543
REMARK  214  A    between atoms: _543  and  _544
REMARK  215  A    between atoms: _543  and  _546
REMARK  216  A    between atoms: _546  and  _547
REMARK  217  A    between atoms: _550  and  _552
REMARK  218  A    between atoms: _552  and  _553
REMARK  219  A    between atoms: _556  and  _558
REMARK  220  A    between atoms: _558  and  _559
REMARK  221  A    between atoms: _558  and  _561
REMARK  222  A    between atoms: _561  and  _562
REMARK  223  A    between atoms: _565  and  _567
REMARK  224  A    between atoms: _567  and  _568
REMARK  225  A    between atoms: _567  and  _570
REMARK  226  A    between atoms: _570  and  _571
REMARK  227  A    between atoms: _573  and  _575
REMARK  228  A    between atoms: _575  and  _576
REMARK  229  A    between atoms: _578  and  _580
REMARK  230  A    between atoms: _580  and  _581
REMARK  231  A    between atoms: _580  and  _583
REMARK  232  A    between atoms: _583  and  _584
REMARK  233  A    between atoms: _587  and  _589
REMARK  234  A    between atoms: _589  and  _590
REMARK  235  A    between atoms: _589  and  _592
REMARK                            x       y       z     vdW  Elec       q    Type
REMARK                         _______ _______ _______ _____ _____    ______ ____
ROOT
ATOM      1  CA  ILE A   3      -5.482  -9.360  19.912  0.00  0.00    +0.149 C 
ENDROOT
BRANCH   1   3
ATOM      2  C   ILE A   2      -7.839  -8.822  20.264  0.00  0.00    +0.241 C 
ATOM      3  N   ILE A   3      -6.642  -9.120  20.754  0.00  0.00    -0.297 N 
ATOM      4  H   ILE A   3      -6.529  -9.185  21.786  0.00  0.00    +0.150 HD
ATOM      5  O   ILE A   2      -8.079  -8.738  19.060  0.00  0.00    -0.273 OA
BRANCH   2   6
ATOM      6  CA  ILE A   2      -8.909  -8.527  21.299  0.00  0.00    +0.148 C 
BRANCH   6   9
ATOM      7  C   GLN A   1      -8.679  -6.204  21.927  0.00  0.00    +0.238 C 
ATOM      8  O   GLN A   1      -8.195  -6.456  23.030  0.00  0.00    -0.274 OA
ATOM      9  N   ILE A   2      -9.231  -7.123  21.146  0.00  0.00    -0.297 N 
ATOM     10  H   ILE A   2      -9.906  -6.831  20.411  0.00  0.00    +0.150 HD
BRANCH   7  11
ATOM     11  CA  GLN A   1      -8.678  -4.791  21.374  0.00  0.00    +0.145 C 
BRANCH  11  12
ATOM     12  N   GLN A   1      -8.343  -3.813  22.398  0.00  0.00    -0.238 NA
ATOM     13  H   GLN A   1      -7.488  -3.953  22.973  0.00  0.00    +0.142 HD
ENDBRANCH  11  12
BRANCH  11  14
ATOM     14  CB  GLN A   1      -7.661  -4.742  20.231  0.00  0.00    +0.036 C 
BRANCH  14  15
ATOM     15  CG  GLN A   1      -7.620  -3.453  19.450  0.00  0.00    +0.087 C 
BRANCH  15  16
ATOM     16  CD  GLN A   1      -6.582  -3.493  18.346  0.00  0.00    +0.219 C 
ATOM     17  NE2 GLN A   1      -5.931  -2.361  18.104  0.00  0.00    -0.329 N 
ATOM     18 HE21 GLN A   1      -6.153  -1.506  18.653  0.00  0.00    +0.145 HD
ATOM     19 HE22 GLN A   1      -5.200  -2.329  17.365  0.00  0.00    +0.145 HD
ATOM     20  OE1 GLN A   1      -6.359  -4.535  17.725  0.00  0.00    -0.275 OA
ENDBRANCH  15  16
ENDBRANCH  14  15
ENDBRANCH  11  14
ENDBRANCH   7  11
ENDBRANCH   6   9
BRANCH   6  21
ATOM     21  CB  ILE A   2     -10.127  -9.434  21.099  0.00  0.00    +0.027 C 
ATOM     22  CG2 ILE A   2      -9.684 -10.877  20.921  0.00  0.00    +0.002 C 
BRANCH  21  23
ATOM     23  CG1 ILE A   2     -11.064  -9.312  22.301  0.00  0.00    +0.002 C 
ATOM     24  CD1 ILE A   2     -12.361 -10.054  22.137  0.00  0.00    +0.000 C 
ENDBRANCH  21  23
ENDBRANCH   6  21
ENDBRANCH   2   6
ENDBRANCH   1   3
BRANCH   1  25
ATOM     25  C   ILE A   3      -5.042 -10.796  20.127  0.00  0.00    +0.241 C 
ATOM     26  O   ILE A   3      -4.540 -11.140  21.193  0.00  0.00    -0.273 OA
ATOM     27  N   LEU A   4      -5.239 -11.646  19.127  0.00  0.00    -0.297 N 
ATOM     28  H   LEU A   4      -5.649 -11.314  18.231  0.00  0.00    +0.150 HD
BRANCH  27  29
ATOM     29  CA  LEU A   4      -4.878 -13.046  19.292  0.00  0.00    +0.149 C 
BRANCH  29  30
ATOM     30  C   LEU A   4      -4.362 -13.732  18.035  0.00  0.00    +0.241 C 
ATOM     31  N   SER A   5      -3.650 -14.830  18.258  0.00  0.00    -0.295 N 
ATOM     32  H   SER A   5      -3.392 -15.068  19.237  0.00  0.00    +0.150 HD
ATOM     33  O   LEU A   4      -4.603 -13.292  16.912  0.00  0.00    -0.273 OA
BRANCH  31  34
ATOM     34  CA  SER A   5      -3.217 -15.712  17.190  0.00  0.00    +0.178 C 
BRANCH  34  35
ATOM     35  C   SER A   5      -3.523 -17.148  17.583  0.00  0.00    +0.243 C 
ATOM     36  O   SER A   5      -3.463 -17.501  18.760  0.00  0.00    -0.273 OA
ATOM     37  N   VAL A   6      -3.863 -17.971  16.598  0.00  0.00    -0.298 N 
ATOM     38  H   VAL A   6      -3.996 -17.591  15.639  0.00  0.00    +0.150 HD
BRANCH  37  39
ATOM     39  CA  VAL A   6      -4.053 -19.395  16.833  0.00  0.00    +0.137 C 
BRANCH  39  40
ATOM     40  CB  VAL A   6      -5.546 -19.816  16.783  0.00  0.00    +0.026 C 
ATOM     41  CG2 VAL A   6      -6.366 -19.036  17.805  0.00  0.00    +0.002 C 
ATOM     42  CG1 VAL A   6      -6.115 -19.634  15.385  0.00  0.00    +0.002 C 
ENDBRANCH  39  40
BRANCH  39  43
ATOM     43  C   VAL A   6      -3.263 -20.201  15.814  0.00  0.00    +0.227 C 
ATOM     44  O   VAL A   6      -3.003 -19.735  14.704  0.00  0.00    -0.286 OA
ENDBRANCH  39  43
ENDBRANCH  37  39
ENDBRANCH  34  35
BRANCH  34  45
ATOM     45  CB  SER A   5      -1.719 -15.551  16.924  0.00  0.00    +0.166 C 
BRANCH  45  46
ATOM     46  OG  SER A   5      -1.412 -14.239  16.491  0.00  0.00    -0.380 OA
ATOM     47  H   SER A   5      -1.680 -13.591  17.190  0.00  0.00    +0.211 HD
ENDBRANCH  45  46
ENDBRANCH  34  45
ENDBRANCH  31  34
ENDBRANCH  29  30
BRANCH  29  48
ATOM     48  CB  LEU A   4      -6.040 -13.849  19.900  0.00  0.00    +0.029 C 
BRANCH  48  49
ATOM     49  CG  LEU A   4      -7.371 -14.016  19.156  0.00  0.00    +0.002 C 
ATOM     50  CD2 LEU A   4      -8.486 -14.312  20.153  0.00  0.00    +0.000 C 
ATOM     51  CD1 LEU A   4      -7.314 -15.113  18.096  0.00  0.00    +0.000 C 
ENDBRANCH  48  49
ENDBRANCH  29  48
ENDBRANCH  27  29
ENDBRANCH   1  25
BRANCH   1  52
ATOM     52  CB  ILE A   3      -4.320  -8.427  20.304  0.00  0.00    +0.027 C 
ATOM     53  CG2 ILE A   3      -3.112  -8.662  19.420  0.00  0.00    +0.002 C 
BRANCH  52  54
ATOM     54  CG1 ILE A   3      -4.756  -6.964  20.222  0.00  0.00    +0.002 C 
ATOM     55  CD1 ILE A   3      -3.691  -5.987  20.668  0.00  0.00    +0.000 C 
ENDBRANCH  52  54
ENDBRANCH   1  52
TORSDOF 24
REMARK  Name = ../refined-set-2016/4xtv/4xtv_pocket.pdb
REMARK  235 active torsions:
REMARK  status: ('A' for Active; 'I' for Inactive)
REMARK    1  A    between atoms: _1  and  _3
REMARK    2  A    between atoms: _3  and  _4
REMARK    3  A    between atoms: _3  and  _6
REMARK    4  A    between atoms: _6  and  _7
REMARK    5  A    between atoms: _10  and  _12
REMARK    6  A    between atoms: _12  and  _13
REMARK    7  A    between atoms: _15  and  _17
REMARK    8  A    between atoms: _17  and  _18
REMARK    9  A    between atoms: _17  and  _20
REMARK   10  A    between atoms: _20  and  _21
REMARK   11  A    between atoms: _23  and  _25
REMARK   12  A    between atoms: _25  and  _26
REMARK   13  A    between atoms: _25  and  _28
REMARK   14  A    between atoms: _28  and  _29
REMARK   15  A    between atoms: _32  and  _34
REMARK   16  A    between atoms: _34  and  _35
REMARK   17  A    between atoms: _34  and  _37
REMARK   18  A    between atoms: _37  and  _38
REMARK   19  A    between atoms: _43  and  _45
REMARK   20  A    between atoms: _45  and  _46
REMARK   21  A    between atoms: _49  and  _51
REMARK   22  A    between atoms: _51  and  _52
REMARK   23  A    between atoms: _51  and  _54
REMARK   24  A    between atoms: _54  and  _55
REMARK   25  A    between atoms: _58  and  _60
REMARK   26  A    between atoms: _60  and  _61
REMARK   27  A    between atoms: _60  and  _63
REMARK   28  A    between atoms: _63  and  _64
REMARK   29  A    between atoms: _67  and  _69
REMARK   30  A    between atoms: _69  and  _70
REMARK   31  A    between atoms: _69  and  _72
REMARK   32  A    between atoms: _72  and  _73
REMARK   33  A    between atoms: _76  and  _78
REMARK   34  A    between atoms: _78  and  _79
REMARK   35  A    between atoms: _82  and  _84
REMARK   36  A    between atoms: _84  and  _85
REMARK   37  A    between atoms: _84  and  _87
REMARK   38  A    between atoms: _87  and  _88
REMARK   39  A    between atoms: _88  and  _89
REMARK   40  A    between atoms: _94  and  _96
REMARK   41  A    between atoms: _96  and  _97
REMARK   42  A    between atoms: _96  and  _99
REMARK   43  A    between atoms: _99  and  _100
REMARK   44  A    between atoms: _103  and  _105
REMARK   45  A    between atoms: _105  and  _106
REMARK   46  A    between atoms: _109  and  _111
REMARK   47  A    between atoms: _111  and  _112
REMARK   48  A    between atoms: _114  and  _116
REMARK   49  A    between atoms: _116  and  _117
REMARK   50  A    between atoms: _116  and  _119
REMARK   51  A    between atoms: _119  and  _120
REMARK   52  A    between atoms: _120  and  _121
REMARK   53  A    between atoms: _121  and  _122
REMARK   54  A    between atoms: _131  and  _133
REMARK   55  A    between atoms: _133  and  _134
REMARK   56  A    between atoms: _136  and  _138
REMARK   57  A    between atoms: _138  and  _139
REMARK   58  A    between atoms: _138  and  _141
REMARK   59  A    between atoms: _141  and  _142
REMARK   60  A    between atoms: _142  and  _143
REMARK   61  A    between atoms: _143  and  _144
REMARK   62  A    between atoms: _153  and  _155
REMARK   63  A    between atoms: _155  and  _156
REMARK   64  A    between atoms: _155  and  _158
REMARK   65  A    between atoms: _158  and  _159
REMARK   66  A    between atoms: _164  and  _166
REMARK   67  A    between atoms: _166  and  _167
REMARK   68  A    between atoms: _169  and  _171
REMARK   69  A    between atoms: _171  and  _172
REMARK   70  A    between atoms: _171  and  _174
REMARK   71  A    between atoms: _174  and  _175
REMARK   72  A    between atoms: _175  and  _176
REMARK   73  A    between atoms: _176  and  _177
REMARK   74  A    between atoms: _186  and  _188
REMARK   75  A    between atoms: _188  and  _189
REMARK   76  A    between atoms: _191  and  _193
REMARK   77  A    between atoms: _193  and  _194
REMARK   78  A    between atoms: _193  and  _196
REMARK   79  A    between atoms: _196  and  _197
REMARK   80  A    between atoms: _207  and  _209
REMARK   81  A    between atoms: _209  and  _210
REMARK   82  A    between atoms: _213  and  _215
REMARK   83  A    between atoms: _215  and  _216
REMARK   84  A    between atoms: _219  and  _221
REMARK   85  A    between atoms: _221  and  _222
REMARK   86  A    between atoms: _221  and  _224
REMARK   87  A    between atoms: _224  and  _225
REMARK   88  A    between atoms: _228  and  _230
REMARK   89  A    between atoms: _230  and  _231
REMARK   90  A    between atoms: _230  and  _233
REMARK   91  A    between atoms: _233  and  _234
REMARK   92  A    between atoms: _234  and  _235
REMARK   93  A    between atoms: _240  and  _242
REMARK   94  A    between atoms: _242  and  _243
REMARK   95  A    between atoms: _242  and  _245
REMARK   96  A    between atoms: _245  and  _246
REMARK   97  A    between atoms: _249  and  _251
REMARK   98  A    between atoms: _251  and  _252
REMARK   99  A    between atoms: _251  and  _254
REMARK  100  A    between atoms: _254  and  _255
REMARK  101  A    between atoms: _258  and  _260
REMARK  102  A    between atoms: _260  and  _261
REMARK  103  A    between atoms: _260  and  _263
REMARK  104  A    between atoms: _263  and  _264
REMARK  105  A    between atoms: _267  and  _269
REMARK  106  A    between atoms: _269  and  _270
REMARK  107  A    between atoms: _269  and  _272
REMARK  108  A    between atoms: _272  and  _273
REMARK  109  A    between atoms: _275  and  _277
REMARK  110  A    between atoms: _277  and  _278
REMARK  111  A    between atoms: _277  and  _280
REMARK  112  A    between atoms: _283  and  _285
REMARK  113  A    between atoms: _285  and  _286
REMARK  114  A    between atoms: _285  and  _288
REMARK  115  A    between atoms: _288  and  _289
REMARK  116  A    between atoms: _289  and  _290
REMARK  117  A    between atoms: _290  and  _291
REMARK  118  A    between atoms: _291  and  _292
REMARK  119  A    between atoms: _296  and  _298
REMARK  120  A    between atoms: _298  and  _299
REMARK  121  A    between atoms: _298  and  _301
REMARK  122  A    between atoms: _301  and  _302
REMARK  123  A    between atoms: _313  and  _314
REMARK  124  A    between atoms: _319  and  _321
REMARK  125  A    between atoms: _321  and  _322
REMARK  126  A    between atoms: _321  and  _324
REMARK  127  A    between atoms: _324  and  _325
REMARK  128  A    between atoms: _330  and  _332
REMARK  129  A    between atoms: _332  and  _333
REMARK  130  A    between atoms: _332  and  _335
REMARK  131  A    between atoms: _335  and  _336
REMARK  132  A    between atoms: _339  and  _341
REMARK  133  A    between atoms: _341  and  _342
REMARK  134  A    between atoms: _341  and  _344
REMARK  135  A    between atoms: _347  and  _349
REMARK  136  A    between atoms: _349  and  _350
REMARK  137  A    between atoms: _352  and  _354
REMARK  138  A    between atoms: _354  and  _355
REMARK  139  A    between atoms: _354  and  _357
REMARK  140  A    between atoms: _357  and  _358
REMARK  141  A    between atoms: _358  and  _359
REMARK  142  A    between atoms: _359  and  _360
REMARK  143  A    between atoms: _360  and  _361
REMARK  144  A    between atoms: _365  and  _367
REMARK  145  A    between atoms: _367  and  _368
REMARK  146  A    between atoms: _367  and  _370
REMARK  147  A    between atoms: _370  and  _371
REMARK  148  A    between atoms: _374  and  _376
REMARK  149  A    between atoms: _376  and  _377
REMARK  150  A    between atoms: _380  and  _382
REMARK  151  A    between atoms: _382  and  _383
REMARK  152  A    between atoms: _385  and  _387
REMARK  153  A    between atoms: _387  and  _388
REMARK  154  A    between atoms: _387  and  _390
REMARK  155  A    between atoms: _390  and  _391
REMARK  156  A    between atoms: _394  and  _396
REMARK  157  A    between atoms: _396  and  _397
REMARK  158  A    between atoms: _396  and  _399
REMARK  159  A    between atoms: _399  and  _400
REMARK  160  A    between atoms: _403  and  _405
REMARK  161  A    between atoms: _405  and  _406
REMARK  162  A    between atoms: _409  and  _411
REMARK  163  A    between atoms: _411  and  _412
REMARK  164  A    between atoms: _411  and  _414
REMARK  165  A    between atoms: _414  and  _415
REMARK  166  A    between atoms: _415  and  _416
REMARK  167  A    between atoms: _419  and  _421
REMARK  168  A    between atoms: _421  and  _422
REMARK  169  A    between atoms: _421  and  _424
REMARK  170  A    between atoms: _427  and  _429
REMARK  171  A    between atoms: _429  and  _430
REMARK  172  A    between atoms: _429  and  _432
REMARK  173  A    between atoms: _432  and  _433
REMARK  174  A    between atoms: _436  and  _438
REMARK  175  A    between atoms: _438  and  _439
REMARK  176  A    between atoms: _441  and  _443
REMARK  177  A    between atoms: _443  and  _444
REMARK  178  A    between atoms: _443  and  _446
REMARK  179  A    between atoms: _449  and  _451
REMARK  180  A    between atoms: _451  and  _452
REMARK  181  A    between atoms: _454  and  _456
REMARK  182  A    between atoms: _456  and  _457
REMARK  183  A    between atoms: _456  and  _459
REMARK  184  A    between atoms: _459  and  _460
REMARK  185  A    between atoms: _463  and  _465
REMARK  186  A    between atoms: _465  and  _466
REMARK  187  A    between atoms: _465  and  _468
REMARK  188  A    between atoms: _468  and  _469
REMARK  189  A    between atoms: _474  and  _476
REMARK  190  A    between atoms: _476  and  _477
REMARK  191  A    between atoms: _476  and  _479
REMARK  192  A    between atoms: _482  and  _484
REMARK  193  A    between atoms: _484  and  _485
REMARK  194  A    between atoms: _484  and  _487
REMARK  195  A    between atoms: _487  and  _488
REMARK  196  A    between atoms: _488  and  _489
REMARK  197  A    between atoms: _494  and  _496
REMARK  198  A    between atoms: _496  and  _497
REMARK  199  A    between atoms: _501  and  _502
REMARK  200  A    between atoms: _507  and  _509
REMARK  201  A    between atoms: _509  and  _510
REMARK  202  A    between atoms: _509  and  _512
REMARK  203  A    between atoms: _512  and  _513
REMARK  204  A    between atoms: _513  and  _514
REMARK  205  A    between atoms: _517  and  _519
REMARK  206  A    between atoms: _519  and  _520
REMARK  207  A    between atoms: _519  and  _522
REMARK  208  A    between atoms: _525  and  _527
REMARK  209  A    between atoms: _527  and  _528
REMARK  210  A    between atoms: _527  and  _530
REMARK  211  A    between atoms: _530  and  _531
REMARK  212  A    between atoms: _535  and  _536
REMARK  213  A    between atoms: _541  and  _543
REMARK  214  A    between atoms: _543  and  _544
REMARK  215  A    between atoms: _543  and  _546
REMARK  216  A    between atoms: _546  and  _547
REMARK  217  A    between atoms: _550  and  _552
REMARK  218  A    between atoms: _552  and  _553
REMARK  219  A    between atoms: _556  and  _558
REMARK  220  A    between atoms: _558  and  _559
REMARK  221  A    between atoms: _558  and  _561
REMARK  222  A    between atoms: _561  and  _562
REMARK  223  A    between atoms: _565  and  _567
REMARK  224  A    between atoms: _567  and  _568
REMARK  225  A    between atoms: _567  and  _570
REMARK  226  A    between atoms: _570  and  _571
REMARK  227  A    between atoms: _573  and  _575
REMARK  228  A    between atoms: _575  and  _576
REMARK  229  A    between atoms: _578  and  _580
REMARK  230  A    between atoms: _580  and  _581
REMARK  231  A    between atoms: _580  and  _583
REMARK  232  A    between atoms: _583  and  _584
REMARK  233  A    between atoms: _587  and  _589
REMARK  234  A    between atoms: _589  and  _590
REMARK  235  A    between atoms: _589  and  _592
REMARK                            x       y       z     vdW  Elec       q    Type
REMARK                         _______ _______ _______ _____ _____    ______ ____
ROOT
ATOM      1  C   TRP A   2     -10.880  -8.762   0.780  0.00  0.00    +0.244 C 
ATOM      2  N   PRO A   3      -9.811  -9.423   1.258  0.00  0.00    -0.272 N 
ATOM      3  CA  PRO A   3      -9.774 -10.824   1.679  0.00  0.00    +0.152 C 
ATOM      4  CB  PRO A   3      -8.451 -11.299   1.087  0.00  0.00    +0.031 C 
ATOM      5  CG  PRO A   3      -7.559 -10.102   1.253  0.00  0.00    +0.024 C 
ATOM      6  CD  PRO A   3      -8.450  -8.872   1.121  0.00  0.00    +0.094 C 
ATOM      7  O   TRP A   2     -10.814  -7.597   0.389  0.00  0.00    -0.273 OA
ENDROOT
BRANCH   3   8
ATOM      8  C   PRO A   3      -9.746 -11.044   3.193  0.00  0.00    +0.241 C 
ATOM      9  N   ASN A   4      -9.648  -9.990   3.998  0.00  0.00    -0.297 N 
ATOM     10  H   ASN A   4      -9.757  -9.040   3.588  0.00  0.00    +0.150 HD
ATOM     11  O   PRO A   3      -9.831 -12.198   3.609  0.00  0.00    -0.273 OA
BRANCH   9  12
ATOM     12  CA  ASN A   4      -9.395 -10.105   5.424  0.00  0.00    +0.158 C 
BRANCH  12  13
ATOM     13  C   ASN A   4     -10.023  -9.020   6.305  0.00  0.00    +0.241 C 
ATOM     14  O   ASN A   4      -9.490  -8.770   7.386  0.00  0.00    -0.273 OA
ATOM     15  N   ASP A   5     -11.061  -8.336   5.849  0.00  0.00    -0.297 N 
ATOM     16  H   ASP A   5     -11.492  -8.590   4.937  0.00  0.00    +0.150 HD
BRANCH  15  17
ATOM     17  CA  ASP A   5     -11.600  -7.226   6.626  0.00  0.00    +0.160 C 
BRANCH  17  18
ATOM     18  C   ASP A   5     -13.000  -7.499   7.157  0.00  0.00    +0.241 C 
ATOM     19  N   VAL A   6     -13.215  -7.172   8.426  0.00  0.00    -0.298 N 
ATOM     20  H   VAL A   6     -12.405  -6.966   9.045  0.00  0.00    +0.150 HD
ATOM     21  O   ASP A   5     -13.860  -8.006   6.438  0.00  0.00    -0.273 OA
BRANCH  19  22
ATOM     22  CA  VAL A   6     -14.564  -7.097   8.965  0.00  0.00    +0.137 C 
BRANCH  22  23
ATOM     23  CB  VAL A   6     -14.677  -7.713  10.371  0.00  0.00    +0.026 C 
ATOM     24  CG2 VAL A   6     -16.115  -7.626  10.869  0.00  0.00    +0.002 C 
ATOM     25  CG1 VAL A   6     -14.202  -9.157  10.364  0.00  0.00    +0.002 C 
ENDBRANCH  22  23
BRANCH  22  26
ATOM     26  C   VAL A   6     -14.930  -5.623   9.031  0.00  0.00    +0.227 C 
ATOM     27  O   VAL A   6     -14.275  -4.848   9.728  0.00  0.00    -0.286 OA
ENDBRANCH  22  26
ENDBRANCH  19  22
ENDBRANCH  17  18
BRANCH  17  28
ATOM     28  CB  ASP A   5     -11.597  -5.937   5.798  0.00  0.00    +0.143 C 
BRANCH  28  29
ATOM     29  CG  ASP A   5     -10.206  -5.372   5.605  0.00  0.00    +0.367 C 
ATOM     30  OD2 ASP A   5      -9.229  -6.052   5.978  0.00  0.00    -0.246 OA
ATOM     31  OD1 ASP A   5     -10.088  -4.250   5.073  0.00  0.00    -0.246 OA
ENDBRANCH  28  29
ENDBRANCH  17  28
ENDBRANCH  15  17
ENDBRANCH  12  13
BRANCH  12  32
ATOM     32  CB  ASN A   4      -7.885 -10.042   5.649  0.00  0.00    +0.114 C 
BRANCH  32  33
ATOM     33  CG  ASN A   4      -7.311  -8.658   5.354  0.00  0.00    +0.222 C 
ATOM     34  ND2 ASN A   4      -6.395  -8.203   6.201  0.00  0.00    -0.329 N 
ATOM     35 HD21 ASN A   4      -6.093  -8.790   7.005  0.00  0.00    +0.145 HD
ATOM     36 HD22 ASN A   4      -5.979  -7.260   6.060  0.00  0.00    +0.145 HD
ATOM     37  OD1 ASN A   4      -7.703  -8.003   4.386  0.00  0.00    -0.275 OA
ENDBRANCH  32  33
ENDBRANCH  12  32
ENDBRANCH   9  12
ENDBRANCH   3   8
BRANCH   1  38
ATOM     38  CA  TRP A   2     -12.213  -9.514   0.722  0.00  0.00    +0.153 C 
BRANCH  38  41
ATOM     39  C   LYS A   1     -13.334  -8.116   2.373  0.00  0.00    +0.238 C 
ATOM     40  O   LYS A   1     -12.504  -8.382   3.243  0.00  0.00    -0.274 OA
ATOM     41  N   TRP A   2     -13.288  -8.625   1.148  0.00  0.00    -0.297 N 
ATOM     42  H   TRP A   2     -14.040  -8.383   0.472  0.00  0.00    +0.150 HD
BRANCH  39  43
ATOM     43  CA  LYS A   1     -14.499  -7.180   2.662  0.00  0.00    +0.145 C 
BRANCH  43  44
ATOM     44  N   LYS A   1     -15.190  -7.641   3.859  0.00  0.00    -0.238 NA
ATOM     45  H   LYS A   1     -14.762  -7.466   4.791  0.00  0.00    +0.142 HD
ENDBRANCH  43  44
BRANCH  43  46
ATOM     46  CB  LYS A   1     -13.998  -5.739   2.813  0.00  0.00    +0.026 C 
BRANCH  46  47
ATOM     47  CG  LYS A   1     -13.227  -5.234   1.588  0.00  0.00    -0.000 C 
BRANCH  47  48
ATOM     48  CD  LYS A   1     -13.105  -3.715   1.552  0.00  0.00    -0.024 C 
BRANCH  48  49
ATOM     49  CE  LYS A   1     -12.008  -3.216   2.473  0.00  0.00    -0.086 C 
BRANCH  49  50
ATOM     50  NZ  LYS A   1     -11.828  -1.741   2.362  0.00  0.00    +0.380 N 
ATOM     51  HZ1 LYS A   1     -11.070  -1.436   3.006  0.00  0.00    -0.089 HD
ATOM     52  HZ2 LYS A   1     -12.716  -1.264   2.619  0.00  0.00    -0.089 HD
ATOM     53  HZ3 LYS A   1     -11.573  -1.497   1.384  0.00  0.00    -0.089 HD
ENDBRANCH  49  50
ENDBRANCH  48  49
ENDBRANCH  47  48
ENDBRANCH  46  47
ENDBRANCH  43  46
ENDBRANCH  39  43
ENDBRANCH  38  41
BRANCH  38  54
ATOM     54  CB  TRP A   2     -12.495 -10.016  -0.699  0.00  0.00    +0.057 C 
BRANCH  54  55
ATOM     55  CG  TRP A   2     -11.557 -11.079  -1.170  0.00  0.00    -0.002 A 
ATOM     56  CD1 TRP A   2     -11.733 -12.428  -1.073  0.00  0.00    +0.068 A 
ATOM     57  NE1 TRP A   2     -10.655 -13.086  -1.614  0.00  0.00    -0.352 N 
ATOM     58  HE1 TRP A   2     -10.541 -14.118  -1.667  0.00  0.00    +0.166 HD
ATOM     59  CE2 TRP A   2      -9.754 -12.161  -2.072  0.00  0.00    +0.056 A 
ATOM     60  CZ2 TRP A   2      -8.520 -12.341  -2.694  0.00  0.00    +0.017 A 
ATOM     61  CH2 TRP A   2      -7.824 -11.218  -3.053  0.00  0.00    +0.001 A 
ATOM     62  CZ3 TRP A   2      -8.328  -9.935  -2.803  0.00  0.00    +0.000 A 
ATOM     63  CE3 TRP A   2      -9.556  -9.755  -2.186  0.00  0.00    +0.001 A 
ATOM     64  CD2 TRP A   2     -10.291 -10.885  -1.812  0.00  0.00    +0.013 A 
ENDBRANCH  54  55
ENDBRANCH  38  54
ENDBRANCH   1  38
TORSDOF 23
REMARK  Name = ../refined-set-2016/4xtv/4xtv_pocket.pdb
REMARK  235 active torsions:
REMARK  status: ('A' for Active; 'I' for Inactive)
REMARK    1  A    between atoms: _1  and  _3
REMARK    2  A    between atoms: _3  and  _4
REMARK    3  A    between atoms: _3  and  _6
REMARK    4  A    between atoms: _6  and  _7
REMARK    5  A    between atoms: _10  and  _12
REMARK    6  A    between atoms: _12  and  _13
REMARK    7  A    between atoms: _15  and  _17
REMARK    8  A    between atoms: _17  and  _18
REMARK    9  A    between atoms: _17  and  _20
REMARK   10  A    between atoms: _20  and  _21
REMARK   11  A    between atoms: _23  and  _25
REMARK   12  A    between atoms: _25  and  _26
REMARK   13  A    between atoms: _25  and  _28
REMARK   14  A    between atoms: _28  and  _29
REMARK   15  A    between atoms: _32  and  _34
REMARK   16  A    between atoms: _34  and  _35
REMARK   17  A    between atoms: _34  and  _37
REMARK   18  A    between atoms: _37  and  _38
REMARK   19  A    between atoms: _43  and  _45
REMARK   20  A    between atoms: _45  and  _46
REMARK   21  A    between atoms: _49  and  _51
REMARK   22  A    between atoms: _51  and  _52
REMARK   23  A    between atoms: _51  and  _54
REMARK   24  A    between atoms: _54  and  _55
REMARK   25  A    between atoms: _58  and  _60
REMARK   26  A    between atoms: _60  and  _61
REMARK   27  A    between atoms: _60  and  _63
REMARK   28  A    between atoms: _63  and  _64
REMARK   29  A    between atoms: _67  and  _69
REMARK   30  A    between atoms: _69  and  _70
REMARK   31  A    between atoms: _69  and  _72
REMARK   32  A    between atoms: _72  and  _73
REMARK   33  A    between atoms: _76  and  _78
REMARK   34  A    between atoms: _78  and  _79
REMARK   35  A    between atoms: _82  and  _84
REMARK   36  A    between atoms: _84  and  _85
REMARK   37  A    between atoms: _84  and  _87
REMARK   38  A    between atoms: _87  and  _88
REMARK   39  A    between atoms: _88  and  _89
REMARK   40  A    between atoms: _94  and  _96
REMARK   41  A    between atoms: _96  and  _97
REMARK   42  A    between atoms: _96  and  _99
REMARK   43  A    between atoms: _99  and  _100
REMARK   44  A    between atoms: _103  and  _105
REMARK   45  A    between atoms: _105  and  _106
REMARK   46  A    between atoms: _109  and  _111
REMARK   47  A    between atoms: _111  and  _112
REMARK   48  A    between atoms: _114  and  _116
REMARK   49  A    between atoms: _116  and  _117
REMARK   50  A    between atoms: _116  and  _119
REMARK   51  A    between atoms: _119  and  _120
REMARK   52  A    between atoms: _120  and  _121
REMARK   53  A    between atoms: _121  and  _122
REMARK   54  A    between atoms: _131  and  _133
REMARK   55  A    between atoms: _133  and  _134
REMARK   56  A    between atoms: _136  and  _138
REMARK   57  A    between atoms: _138  and  _139
REMARK   58  A    between atoms: _138  and  _141
REMARK   59  A    between atoms: _141  and  _142
REMARK   60  A    between atoms: _142  and  _143
REMARK   61  A    between atoms: _143  and  _144
REMARK   62  A    between atoms: _153  and  _155
REMARK   63  A    between atoms: _155  and  _156
REMARK   64  A    between atoms: _155  and  _158
REMARK   65  A    between atoms: _158  and  _159
REMARK   66  A    between atoms: _164  and  _166
REMARK   67  A    between atoms: _166  and  _167
REMARK   68  A    between atoms: _169  and  _171
REMARK   69  A    between atoms: _171  and  _172
REMARK   70  A    between atoms: _171  and  _174
REMARK   71  A    between atoms: _174  and  _175
REMARK   72  A    between atoms: _175  and  _176
REMARK   73  A    between atoms: _176  and  _177
REMARK   74  A    between atoms: _186  and  _188
REMARK   75  A    between atoms: _188  and  _189
REMARK   76  A    between atoms: _191  and  _193
REMARK   77  A    between atoms: _193  and  _194
REMARK   78  A    between atoms: _193  and  _196
REMARK   79  A    between atoms: _196  and  _197
REMARK   80  A    between atoms: _207  and  _209
REMARK   81  A    between atoms: _209  and  _210
REMARK   82  A    between atoms: _213  and  _215
REMARK   83  A    between atoms: _215  and  _216
REMARK   84  A    between atoms: _219  and  _221
REMARK   85  A    between atoms: _221  and  _222
REMARK   86  A    between atoms: _221  and  _224
REMARK   87  A    between atoms: _224  and  _225
REMARK   88  A    between atoms: _228  and  _230
REMARK   89  A    between atoms: _230  and  _231
REMARK   90  A    between atoms: _230  and  _233
REMARK   91  A    between atoms: _233  and  _234
REMARK   92  A    between atoms: _234  and  _235
REMARK   93  A    between atoms: _240  and  _242
REMARK   94  A    between atoms: _242  and  _243
REMARK   95  A    between atoms: _242  and  _245
REMARK   96  A    between atoms: _245  and  _246
REMARK   97  A    between atoms: _249  and  _251
REMARK   98  A    between atoms: _251  and  _252
REMARK   99  A    between atoms: _251  and  _254
REMARK  100  A    between atoms: _254  and  _255
REMARK  101  A    between atoms: _258  and  _260
REMARK  102  A    between atoms: _260  and  _261
REMARK  103  A    between atoms: _260  and  _263
REMARK  104  A    between atoms: _263  and  _264
REMARK  105  A    between atoms: _267  and  _269
REMARK  106  A    between atoms: _269  and  _270
REMARK  107  A    between atoms: _269  and  _272
REMARK  108  A    between atoms: _272  and  _273
REMARK  109  A    between atoms: _275  and  _277
REMARK  110  A    between atoms: _277  and  _278
REMARK  111  A    between atoms: _277  and  _280
REMARK  112  A    between atoms: _283  and  _285
REMARK  113  A    between atoms: _285  and  _286
REMARK  114  A    between atoms: _285  and  _288
REMARK  115  A    between atoms: _288  and  _289
REMARK  116  A    between atoms: _289  and  _290
REMARK  117  A    between atoms: _290  and  _291
REMARK  118  A    between atoms: _291  and  _292
REMARK  119  A    between atoms: _296  and  _298
REMARK  120  A    between atoms: _298  and  _299
REMARK  121  A    between atoms: _298  and  _301
REMARK  122  A    between atoms: _301  and  _302
REMARK  123  A    between atoms: _313  and  _314
REMARK  124  A    between atoms: _319  and  _321
REMARK  125  A    between atoms: _321  and  _322
REMARK  126  A    between atoms: _321  and  _324
REMARK  127  A    between atoms: _324  and  _325
REMARK  128  A    between atoms: _330  and  _332
REMARK  129  A    between atoms: _332  and  _333
REMARK  130  A    between atoms: _332  and  _335
REMARK  131  A    between atoms: _335  and  _336
REMARK  132  A    between atoms: _339  and  _341
REMARK  133  A    between atoms: _341  and  _342
REMARK  134  A    between atoms: _341  and  _344
REMARK  135  A    between atoms: _347  and  _349
REMARK  136  A    between atoms: _349  and  _350
REMARK  137  A    between atoms: _352  and  _354
REMARK  138  A    between atoms: _354  and  _355
REMARK  139  A    between atoms: _354  and  _357
REMARK  140  A    between atoms: _357  and  _358
REMARK  141  A    between atoms: _358  and  _359
REMARK  142  A    between atoms: _359  and  _360
REMARK  143  A    between atoms: _360  and  _361
REMARK  144  A    between atoms: _365  and  _367
REMARK  145  A    between atoms: _367  and  _368
REMARK  146  A    between atoms: _367  and  _370
REMARK  147  A    between atoms: _370  and  _371
REMARK  148  A    between atoms: _374  and  _376
REMARK  149  A    between atoms: _376  and  _377
REMARK  150  A    between atoms: _380  and  _382
REMARK  151  A    between atoms: _382  and  _383
REMARK  152  A    between atoms: _385  and  _387
REMARK  153  A    between atoms: _387  and  _388
REMARK  154  A    between atoms: _387  and  _390
REMARK  155  A    between atoms: _390  and  _391
REMARK  156  A    between atoms: _394  and  _396
REMARK  157  A    between atoms: _396  and  _397
REMARK  158  A    between atoms: _396  and  _399
REMARK  159  A    between atoms: _399  and  _400
REMARK  160  A    between atoms: _403  and  _405
REMARK  161  A    between atoms: _405  and  _406
REMARK  162  A    between atoms: _409  and  _411
REMARK  163  A    between atoms: _411  and  _412
REMARK  164  A    between atoms: _411  and  _414
REMARK  165  A    between atoms: _414  and  _415
REMARK  166  A    between atoms: _415  and  _416
REMARK  167  A    between atoms: _419  and  _421
REMARK  168  A    between atoms: _421  and  _422
REMARK  169  A    between atoms: _421  and  _424
REMARK  170  A    between atoms: _427  and  _429
REMARK  171  A    between atoms: _429  and  _430
REMARK  172  A    between atoms: _429  and  _432
REMARK  173  A    between atoms: _432  and  _433
REMARK  174  A    between atoms: _436  and  _438
REMARK  175  A    between atoms: _438  and  _439
REMARK  176  A    between atoms: _441  and  _443
REMARK  177  A    between atoms: _443  and  _444
REMARK  178  A    between atoms: _443  and  _446
REMARK  179  A    between atoms: _449  and  _451
REMARK  180  A    between atoms: _451  and  _452
REMARK  181  A    between atoms: _454  and  _456
REMARK  182  A    between atoms: _456  and  _457
REMARK  183  A    between atoms: _456  and  _459
REMARK  184  A    between atoms: _459  and  _460
REMARK  185  A    between atoms: _463  and  _465
REMARK  186  A    between atoms: _465  and  _466
REMARK  187  A    between atoms: _465  and  _468
REMARK  188  A    between atoms: _468  and  _469
REMARK  189  A    between atoms: _474  and  _476
REMARK  190  A    between atoms: _476  and  _477
REMARK  191  A    between atoms: _476  and  _479
REMARK  192  A    between atoms: _482  and  _484
REMARK  193  A    between atoms: _484  and  _485
REMARK  194  A    between atoms: _484  and  _487
REMARK  195  A    between atoms: _487  and  _488
REMARK  196  A    between atoms: _488  and  _489
REMARK  197  A    between atoms: _494  and  _496
REMARK  198  A    between atoms: _496  and  _497
REMARK  199  A    between atoms: _501  and  _502
REMARK  200  A    between atoms: _507  and  _509
REMARK  201  A    between atoms: _509  and  _510
REMARK  202  A    between atoms: _509  and  _512
REMARK  203  A    between atoms: _512  and  _513
REMARK  204  A    between atoms: _513  and  _514
REMARK  205  A    between atoms: _517  and  _519
REMARK  206  A    between atoms: _519  and  _520
REMARK  207  A    between atoms: _519  and  _522
REMARK  208  A    between atoms: _525  and  _527
REMARK  209  A    between atoms: _527  and  _528
REMARK  210  A    between atoms: _527  and  _530
REMARK  211  A    between atoms: _530  and  _531
REMARK  212  A    between atoms: _535  and  _536
REMARK  213  A    between atoms: _541  and  _543
REMARK  214  A    between atoms: _543  and  _544
REMARK  215  A    between atoms: _543  and  _546
REMARK  216  A    between atoms: _546  and  _547
REMARK  217  A    between atoms: _550  and  _552
REMARK  218  A    between atoms: _552  and  _553
REMARK  219  A    between atoms: _556  and  _558
REMARK  220  A    between atoms: _558  and  _559
REMARK  221  A    between atoms: _558  and  _561
REMARK  222  A    between atoms: _561  and  _562
REMARK  223  A    between atoms: _565  and  _567
REMARK  224  A    between atoms: _567  and  _568
REMARK  225  A    between atoms: _567  and  _570
REMARK  226  A    between atoms: _570  and  _571
REMARK  227  A    between atoms: _573  and  _575
REMARK  228  A    between atoms: _575  and  _576
REMARK  229  A    between atoms: _578  and  _580
REMARK  230  A    between atoms: _580  and  _581
REMARK  231  A    between atoms: _580  and  _583
REMARK  232  A    between atoms: _583  and  _584
REMARK  233  A    between atoms: _587  and  _589
REMARK  234  A    between atoms: _589  and  _590
REMARK  235  A    between atoms: _589  and  _592
REMARK                            x       y       z     vdW  Elec       q    Type
REMARK                         _______ _______ _______ _____ _____    ______ ____
ROOT
ATOM      1  CA  GLY A   5      -8.181  -7.263  10.482  0.00  0.00    +0.176 C 
ENDROOT
BRANCH   1   3
ATOM      2  C   ALA A   4     -10.340  -6.477  11.299  0.00  0.00    +0.241 C 
ATOM      3  N   GLY A   5      -9.085  -6.844  11.536  0.00  0.00    -0.295 N 
ATOM      4  H   GLY A   5      -8.737  -6.830  12.516  0.00  0.00    +0.150 HD
ATOM      5  O   ALA A   4     -10.818  -6.385  10.168  0.00  0.00    -0.273 OA
BRANCH   2   6
ATOM      6  CA  ALA A   4     -11.175  -6.161  12.532  0.00  0.00    +0.149 C 
ATOM      7  CB  ALA A   4     -11.860  -7.422  13.049  0.00  0.00    +0.031 C 
BRANCH   6  10
ATOM      8  C   LEU A   3     -12.607  -4.324  13.220  0.00  0.00    +0.241 C 
ATOM      9  O   LEU A   3     -12.218  -4.402  14.383  0.00  0.00    -0.273 OA
ATOM     10  N   ALA A   4     -12.157  -5.123  12.259  0.00  0.00    -0.297 N 
ATOM     11  H   ALA A   4     -12.515  -5.004  11.290  0.00  0.00    +0.150 HD
BRANCH   8  12
ATOM     12  CA  LEU A   3     -13.649  -3.284  12.809  0.00  0.00    +0.149 C 
BRANCH  12  15
ATOM     13  C   LYS A   2     -12.585  -1.830  11.158  0.00  0.00    +0.241 C 
ATOM     14  O   LYS A   2     -11.875  -1.276  12.000  0.00  0.00    -0.273 OA
ATOM     15  N   LEU A   3     -13.432  -2.810  11.449  0.00  0.00    -0.297 N 
ATOM     16  H   LEU A   3     -13.962  -3.258  10.674  0.00  0.00    +0.150 HD
BRANCH  13  17
ATOM     17  CA  LYS A   2     -12.543  -1.420   9.691  0.00  0.00    +0.149 C 
BRANCH  17  19
ATOM     18  C   GLY A   1     -14.541  -0.083   9.349  0.00  0.00    +0.240 C 
ATOM     19  N   LYS A   2     -13.219  -0.146   9.476  0.00  0.00    -0.297 N 
ATOM     20  H   LYS A   2     -12.658   0.728   9.421  0.00  0.00    +0.150 HD
ATOM     21  O   GLY A   1     -15.267  -1.075   9.402  0.00  0.00    -0.274 OA
BRANCH  18  22
ATOM     22  CA  GLY A   1     -15.132   1.295   9.130  0.00  0.00    +0.169 C 
BRANCH  22  23
ATOM     23  N   GLY A   1     -16.389   1.261   8.406  0.00  0.00    -0.236 NA
ATOM     24  H   GLY A   1     -17.273   1.105   8.931  0.00  0.00    +0.142 HD
ENDBRANCH  22  23
ENDBRANCH  18  22
ENDBRANCH  17  19
BRANCH  17  25
ATOM     25  CB  LYS A   2     -11.102  -1.367   9.177  0.00  0.00    +0.029 C 
BRANCH  25  26
ATOM     26  CG  LYS A   2     -10.366  -2.693   9.267  0.00  0.00    +0.000 C 
BRANCH  26  27
ATOM     27  CD  LYS A   2      -9.202  -2.751   8.297  0.00  0.00    -0.024 C 
BRANCH  27  28
ATOM     28  CE  LYS A   2      -8.455  -4.069   8.412  0.00  0.00    -0.086 C 
BRANCH  28  29
ATOM     29  NZ  LYS A   2      -7.458  -4.238   7.319  0.00  0.00    +0.380 N 
ATOM     30  HZ1 LYS A   2      -6.970  -5.149   7.434  0.00  0.00    -0.089 HD
ATOM     31  HZ2 LYS A   2      -6.764  -3.464   7.362  0.00  0.00    -0.089 HD
ATOM     32  HZ3 LYS A   2      -7.946  -4.218   6.401  0.00  0.00    -0.089 HD
ENDBRANCH  28  29
ENDBRANCH  27  28
ENDBRANCH  26  27
ENDBRANCH  25  26
ENDBRANCH  17  25
ENDBRANCH  13  17
ENDBRANCH  12  15
BRANCH  12  33
ATOM     33  CB  LEU A   3     -15.060  -3.866  12.929  0.00  0.00    +0.029 C 
BRANCH  33  34
ATOM     34  CG  LEU A   3     -15.487  -4.531  14.237  0.00  0.00    +0.002 C 
ATOM     35  CD2 LEU A   3     -15.426  -3.546  15.392  0.00  0.00    +0.000 C 
ATOM     36  CD1 LEU A   3     -16.887  -5.108  14.095  0.00  0.00    +0.000 C 
ENDBRANCH  33  34
ENDBRANCH  12  33
ENDBRANCH   8  12
ENDBRANCH   6  10
ENDBRANCH   2   6
ENDBRANCH   1   3
BRANCH   1  37
ATOM     37  C   GLY A   5      -7.631  -8.643  10.776  0.00  0.00    +0.243 C 
ATOM     38  O   GLY A   5      -7.353  -8.977  11.926  0.00  0.00    -0.273 OA
ATOM     39  N   ILE A   6      -7.482  -9.450   9.733  0.00  0.00    -0.297 N 
ATOM     40  H   ILE A   6      -7.714  -9.101   8.781  0.00  0.00    +0.150 HD
BRANCH  39  41
ATOM     41  CA  ILE A   6      -7.000 -10.816   9.895  0.00  0.00    +0.149 C 
BRANCH  41  42
ATOM     42  C   ILE A   6      -5.728 -11.046   9.085  0.00  0.00    +0.241 C 
ATOM     43  N   LEU A   7      -4.765 -11.730   9.692  0.00  0.00    -0.297 N 
ATOM     44  H   LEU A   7      -4.912 -12.056  10.668  0.00  0.00    +0.150 HD
ATOM     45  O   ILE A   6      -5.614 -10.602   7.942  0.00  0.00    -0.273 OA
BRANCH  43  46
ATOM     46  CA  LEU A   7      -3.507 -12.034   9.023  0.00  0.00    +0.149 C 
BRANCH  46  47
ATOM     47  C   LEU A   7      -3.163 -13.514   9.138  0.00  0.00    +0.241 C 
ATOM     48  O   LEU A   7      -3.036 -14.047  10.241  0.00  0.00    -0.273 OA
ATOM     49  N   ALA A   8      -3.006 -14.172   7.994  0.00  0.00    -0.297 N 
ATOM     50  H   ALA A   8      -3.165 -13.671   7.097  0.00  0.00    +0.150 HD
BRANCH  49  51
ATOM     51  CA  ALA A   8      -2.617 -15.576   7.962  0.00  0.00    +0.149 C 
ATOM     52  CB  ALA A   8      -3.564 -16.370   7.079  0.00  0.00    +0.031 C 
BRANCH  51  53
ATOM     53  C   ALA A   8      -1.186 -15.713   7.460  0.00  0.00    +0.241 C 
ATOM     54  N   GLU A   9      -0.366 -16.448   8.204  0.00  0.00    -0.298 N 
ATOM     55  H   GLU A   9      -0.721 -16.880   9.081  0.00  0.00    +0.150 HD
ATOM     56  O   ALA A   8      -0.831 -15.160   6.421  0.00  0.00    -0.273 OA
BRANCH  54  57
ATOM     57  CA  GLU A   9       1.022 -16.660   7.814  0.00  0.00    +0.137 C 
BRANCH  57  58
ATOM     58  C   GLU A   9       1.374 -18.143   7.805  0.00  0.00    +0.227 C 
ATOM     59  O   GLU A   9       1.052 -18.877   8.741  0.00  0.00    -0.286 OA
ENDBRANCH  57  58
BRANCH  57  60
ATOM     60  CB  GLU A   9       1.967 -15.866   8.719  0.00  0.00    +0.039 C 
BRANCH  60  61
ATOM     61  CG  GLU A   9       1.757 -14.360   8.630  0.00  0.00    +0.116 C 
BRANCH  61  62
ATOM     62  CD  GLU A   9       2.759 -13.574   9.444  0.00  0.00    +0.365 C 
ATOM     63  OE2 GLU A   9       2.473 -13.286  10.624  0.00  0.00    -0.246 OA
ATOM     64  OE1 GLU A   9       3.831 -13.236   8.901  0.00  0.00    -0.246 OA
ENDBRANCH  61  62
ENDBRANCH  60  61
ENDBRANCH  57  60
ENDBRANCH  54  57
ENDBRANCH  51  53
ENDBRANCH  49  51
ENDBRANCH  46  47
BRANCH  46  65
ATOM     65  CB  LEU A   7      -2.376 -11.192   9.611  0.00  0.00    +0.029 C 
BRANCH  65  66
ATOM     66  CG  LEU A   7      -0.979 -11.468   9.053  0.00  0.00    +0.002 C 
ATOM     67  CD2 LEU A   7       0.067 -10.683   9.829  0.00  0.00    +0.000 C 
ATOM     68  CD1 LEU A   7      -0.903 -11.147   7.566  0.00  0.00    +0.000 C 
ENDBRANCH  65  66
ENDBRANCH  46  65
ENDBRANCH  43  46
ENDBRANCH  41  42
BRANCH  41  69
ATOM     69  CB  ILE A   6      -8.082 -11.863   9.521  0.00  0.00    +0.027 C 
ATOM     70  CG2 ILE A   6      -7.494 -13.266   9.456  0.00  0.00    +0.002 C 
BRANCH  69  71
ATOM     71  CG1 ILE A   6      -9.229 -11.844  10.540  0.00  0.00    +0.002 C 
ATOM     72  CD1 ILE A   6     -10.303 -10.807  10.265  0.00  0.00    +0.000 C 
ENDBRANCH  69  71
ENDBRANCH  41  69
ENDBRANCH  39  41
ENDBRANCH   1  37
TORSDOF 32
REMARK  Name = ../refined-set-2016/4xtv/4xtv_pocket.pdb
REMARK  235 active torsions:
REMARK  status: ('A' for Active; 'I' for Inactive)
REMARK    1  A    between atoms: _1  and  _3
REMARK    2  A    between atoms: _3  and  _4
REMARK    3  A    between atoms: _3  and  _6
REMARK    4  A    between atoms: _6  and  _7
REMARK    5  A    between atoms: _10  and  _12
REMARK    6  A    between atoms: _12  and  _13
REMARK    7  A    between atoms: _15  and  _17
REMARK    8  A    between atoms: _17  and  _18
REMARK    9  A    between atoms: _17  and  _20
REMARK   10  A    between atoms: _20  and  _21
REMARK   11  A    between atoms: _23  and  _25
REMARK   12  A    between atoms: _25  and  _26
REMARK   13  A    between atoms: _25  and  _28
REMARK   14  A    between atoms: _28  and  _29
REMARK   15  A    between atoms: _32  and  _34
REMARK   16  A    between atoms: _34  and  _35
REMARK   17  A    between atoms: _34  and  _37
REMARK   18  A    between atoms: _37  and  _38
REMARK   19  A    between atoms: _43  and  _45
REMARK   20  A    between atoms: _45  and  _46
REMARK   21  A    between atoms: _49  and  _51
REMARK   22  A    between atoms: _51  and  _52
REMARK   23  A    between atoms: _51  and  _54
REMARK   24  A    between atoms: _54  and  _55
REMARK   25  A    between atoms: _58  and  _60
REMARK   26  A    between atoms: _60  and  _61
REMARK   27  A    between atoms: _60  and  _63
REMARK   28  A    between atoms: _63  and  _64
REMARK   29  A    between atoms: _67  and  _69
REMARK   30  A    between atoms: _69  and  _70
REMARK   31  A    between atoms: _69  and  _72
REMARK   32  A    between atoms: _72  and  _73
REMARK   33  A    between atoms: _76  and  _78
REMARK   34  A    between atoms: _78  and  _79
REMARK   35  A    between atoms: _82  and  _84
REMARK   36  A    between atoms: _84  and  _85
REMARK   37  A    between atoms: _84  and  _87
REMARK   38  A    between atoms: _87  and  _88
REMARK   39  A    between atoms: _88  and  _89
REMARK   40  A    between atoms: _94  and  _96
REMARK   41  A    between atoms: _96  and  _97
REMARK   42  A    between atoms: _96  and  _99
REMARK   43  A    between atoms: _99  and  _100
REMARK   44  A    between atoms: _103  and  _105
REMARK   45  A    between atoms: _105  and  _106
REMARK   46  A    between atoms: _109  and  _111
REMARK   47  A    between atoms: _111  and  _112
REMARK   48  A    between atoms: _114  and  _116
REMARK   49  A    between atoms: _116  and  _117
REMARK   50  A    between atoms: _116  and  _119
REMARK   51  A    between atoms: _119  and  _120
REMARK   52  A    between atoms: _120  and  _121
REMARK   53  A    between atoms: _121  and  _122
REMARK   54  A    between atoms: _131  and  _133
REMARK   55  A    between atoms: _133  and  _134
REMARK   56  A    between atoms: _136  and  _138
REMARK   57  A    between atoms: _138  and  _139
REMARK   58  A    between atoms: _138  and  _141
REMARK   59  A    between atoms: _141  and  _142
REMARK   60  A    between atoms: _142  and  _143
REMARK   61  A    between atoms: _143  and  _144
REMARK   62  A    between atoms: _153  and  _155
REMARK   63  A    between atoms: _155  and  _156
REMARK   64  A    between atoms: _155  and  _158
REMARK   65  A    between atoms: _158  and  _159
REMARK   66  A    between atoms: _164  and  _166
REMARK   67  A    between atoms: _166  and  _167
REMARK   68  A    between atoms: _169  and  _171
REMARK   69  A    between atoms: _171  and  _172
REMARK   70  A    between atoms: _171  and  _174
REMARK   71  A    between atoms: _174  and  _175
REMARK   72  A    between atoms: _175  and  _176
REMARK   73  A    between atoms: _176  and  _177
REMARK   74  A    between atoms: _186  and  _188
REMARK   75  A    between atoms: _188  and  _189
REMARK   76  A    between atoms: _191  and  _193
REMARK   77  A    between atoms: _193  and  _194
REMARK   78  A    between atoms: _193  and  _196
REMARK   79  A    between atoms: _196  and  _197
REMARK   80  A    between atoms: _207  and  _209
REMARK   81  A    between atoms: _209  and  _210
REMARK   82  A    between atoms: _213  and  _215
REMARK   83  A    between atoms: _215  and  _216
REMARK   84  A    between atoms: _219  and  _221
REMARK   85  A    between atoms: _221  and  _222
REMARK   86  A    between atoms: _221  and  _224
REMARK   87  A    between atoms: _224  and  _225
REMARK   88  A    between atoms: _228  and  _230
REMARK   89  A    between atoms: _230  and  _231
REMARK   90  A    between atoms: _230  and  _233
REMARK   91  A    between atoms: _233  and  _234
REMARK   92  A    between atoms: _234  and  _235
REMARK   93  A    between atoms: _240  and  _242
REMARK   94  A    between atoms: _242  and  _243
REMARK   95  A    between atoms: _242  and  _245
REMARK   96  A    between atoms: _245  and  _246
REMARK   97  A    between atoms: _249  and  _251
REMARK   98  A    between atoms: _251  and  _252
REMARK   99  A    between atoms: _251  and  _254
REMARK  100  A    between atoms: _254  and  _255
REMARK  101  A    between atoms: _258  and  _260
REMARK  102  A    between atoms: _260  and  _261
REMARK  103  A    between atoms: _260  and  _263
REMARK  104  A    between atoms: _263  and  _264
REMARK  105  A    between atoms: _267  and  _269
REMARK  106  A    between atoms: _269  and  _270
REMARK  107  A    between atoms: _269  and  _272
REMARK  108  A    between atoms: _272  and  _273
REMARK  109  A    between atoms: _275  and  _277
REMARK  110  A    between atoms: _277  and  _278
REMARK  111  A    between atoms: _277  and  _280
REMARK  112  A    between atoms: _283  and  _285
REMARK  113  A    between atoms: _285  and  _286
REMARK  114  A    between atoms: _285  and  _288
REMARK  115  A    between atoms: _288  and  _289
REMARK  116  A    between atoms: _289  and  _290
REMARK  117  A    between atoms: _290  and  _291
REMARK  118  A    between atoms: _291  and  _292
REMARK  119  A    between atoms: _296  and  _298
REMARK  120  A    between atoms: _298  and  _299
REMARK  121  A    between atoms: _298  and  _301
REMARK  122  A    between atoms: _301  and  _302
REMARK  123  A    between atoms: _313  and  _314
REMARK  124  A    between atoms: _319  and  _321
REMARK  125  A    between atoms: _321  and  _322
REMARK  126  A    between atoms: _321  and  _324
REMARK  127  A    between atoms: _324  and  _325
REMARK  128  A    between atoms: _330  and  _332
REMARK  129  A    between atoms: _332  and  _333
REMARK  130  A    between atoms: _332  and  _335
REMARK  131  A    between atoms: _335  and  _336
REMARK  132  A    between atoms: _339  and  _341
REMARK  133  A    between atoms: _341  and  _342
REMARK  134  A    between atoms: _341  and  _344
REMARK  135  A    between atoms: _347  and  _349
REMARK  136  A    between atoms: _349  and  _350
REMARK  137  A    between atoms: _352  and  _354
REMARK  138  A    between atoms: _354  and  _355
REMARK  139  A    between atoms: _354  and  _357
REMARK  140  A    between atoms: _357  and  _358
REMARK  141  A    between atoms: _358  and  _359
REMARK  142  A    between atoms: _359  and  _360
REMARK  143  A    between atoms: _360  and  _361
REMARK  144  A    between atoms: _365  and  _367
REMARK  145  A    between atoms: _367  and  _368
REMARK  146  A    between atoms: _367  and  _370
REMARK  147  A    between atoms: _370  and  _371
REMARK  148  A    between atoms: _374  and  _376
REMARK  149  A    between atoms: _376  and  _377
REMARK  150  A    between atoms: _380  and  _382
REMARK  151  A    between atoms: _382  and  _383
REMARK  152  A    between atoms: _385  and  _387
REMARK  153  A    between atoms: _387  and  _388
REMARK  154  A    between atoms: _387  and  _390
REMARK  155  A    between atoms: _390  and  _391
REMARK  156  A    between atoms: _394  and  _396
REMARK  157  A    between atoms: _396  and  _397
REMARK  158  A    between atoms: _396  and  _399
REMARK  159  A    between atoms: _399  and  _400
REMARK  160  A    between atoms: _403  and  _405
REMARK  161  A    between atoms: _405  and  _406
REMARK  162  A    between atoms: _409  and  _411
REMARK  163  A    between atoms: _411  and  _412
REMARK  164  A    between atoms: _411  and  _414
REMARK  165  A    between atoms: _414  and  _415
REMARK  166  A    between atoms: _415  and  _416
REMARK  167  A    between atoms: _419  and  _421
REMARK  168  A    between atoms: _421  and  _422
REMARK  169  A    between atoms: _421  and  _424
REMARK  170  A    between atoms: _427  and  _429
REMARK  171  A    between atoms: _429  and  _430
REMARK  172  A    between atoms: _429  and  _432
REMARK  173  A    between atoms: _432  and  _433
REMARK  174  A    between atoms: _436  and  _438
REMARK  175  A    between atoms: _438  and  _439
REMARK  176  A    between atoms: _441  and  _443
REMARK  177  A    between atoms: _443  and  _444
REMARK  178  A    between atoms: _443  and  _446
REMARK  179  A    between atoms: _449  and  _451
REMARK  180  A    between atoms: _451  and  _452
REMARK  181  A    between atoms: _454  and  _456
REMARK  182  A    between atoms: _456  and  _457
REMARK  183  A    between atoms: _456  and  _459
REMARK  184  A    between atoms: _459  and  _460
REMARK  185  A    between atoms: _463  and  _465
REMARK  186  A    between atoms: _465  and  _466
REMARK  187  A    between atoms: _465  and  _468
REMARK  188  A    between atoms: _468  and  _469
REMARK  189  A    between atoms: _474  and  _476
REMARK  190  A    between atoms: _476  and  _477
REMARK  191  A    between atoms: _476  and  _479
REMARK  192  A    between atoms: _482  and  _484
REMARK  193  A    between atoms: _484  and  _485
REMARK  194  A    between atoms: _484  and  _487
REMARK  195  A    between atoms: _487  and  _488
REMARK  196  A    between atoms: _488  and  _489
REMARK  197  A    between atoms: _494  and  _496
REMARK  198  A    between atoms: _496  and  _497
REMARK  199  A    between atoms: _501  and  _502
REMARK  200  A    between atoms: _507  and  _509
REMARK  201  A    between atoms: _509  and  _510
REMARK  202  A    between atoms: _509  and  _512
REMARK  203  A    between atoms: _512  and  _513
REMARK  204  A    between atoms: _513  and  _514
REMARK  205  A    between atoms: _517  and  _519
REMARK  206  A    between atoms: _519  and  _520
REMARK  207  A    between atoms: _519  and  _522
REMARK  208  A    between atoms: _525  and  _527
REMARK  209  A    between atoms: _527  and  _528
REMARK  210  A    between atoms: _527  and  _530
REMARK  211  A    between atoms: _530  and  _531
REMARK  212  A    between atoms: _535  and  _536
REMARK  213  A    between atoms: _541  and  _543
REMARK  214  A    between atoms: _543  and  _544
REMARK  215  A    between atoms: _543  and  _546
REMARK  216  A    between atoms: _546  and  _547
REMARK  217  A    between atoms: _550  and  _552
REMARK  218  A    between atoms: _552  and  _553
REMARK  219  A    between atoms: _556  and  _558
REMARK  220  A    between atoms: _558  and  _559
REMARK  221  A    between atoms: _558  and  _561
REMARK  222  A    between atoms: _561  and  _562
REMARK  223  A    between atoms: _565  and  _567
REMARK  224  A    between atoms: _567  and  _568
REMARK  225  A    between atoms: _567  and  _570
REMARK  226  A    between atoms: _570  and  _571
REMARK  227  A    between atoms: _573  and  _575
REMARK  228  A    between atoms: _575  and  _576
REMARK  229  A    between atoms: _578  and  _580
REMARK  230  A    between atoms: _580  and  _581
REMARK  231  A    between atoms: _580  and  _583
REMARK  232  A    between atoms: _583  and  _584
REMARK  233  A    between atoms: _587  and  _589
REMARK  234  A    between atoms: _589  and  _590
REMARK  235  A    between atoms: _589  and  _592
REMARK                            x       y       z     vdW  Elec       q    Type
REMARK                         _______ _______ _______ _____ _____    ______ ____
ROOT
ATOM      1  C   VAL A   4      -6.760 -10.181  15.490  0.00  0.00    +0.241 C 
ATOM      2  O   VAL A   4      -6.385 -10.287  16.657  0.00  0.00    -0.273 OA
ATOM      3  N   GLY A   5      -6.983  -9.010  14.903  0.00  0.00    -0.295 N 
ATOM      4  H   GLY A   5      -7.128  -8.982  13.874  0.00  0.00    +0.150 HD
ENDROOT
BRANCH   3   5
ATOM      5  CA  GLY A   5      -7.030  -7.770  15.653  0.00  0.00    +0.176 C 
BRANCH   5   6
ATOM      6  C   GLY A   5      -8.440  -7.214  15.588  0.00  0.00    +0.243 C 
ATOM      7  N   LEU A   6      -9.155  -7.263  16.706  0.00  0.00    -0.297 N 
ATOM      8  H   LEU A   6      -8.715  -7.637  17.571  0.00  0.00    +0.150 HD
ATOM      9  O   GLY A   5      -8.882  -6.766  14.536  0.00  0.00    -0.273 OA
BRANCH   7  10
ATOM     10  CA  LEU A   6     -10.542  -6.806  16.756  0.00  0.00    +0.149 C 
BRANCH  10  11
ATOM     11  C   LEU A   6     -10.687  -5.586  17.657  0.00  0.00    +0.241 C 
ATOM     12  O   LEU A   6     -10.404  -5.655  18.850  0.00  0.00    -0.273 OA
ATOM     13  N   ASN A   7     -11.126  -4.470  17.080  0.00  0.00    -0.297 N 
ATOM     14  H   ASN A   7     -11.342  -4.478  16.063  0.00  0.00    +0.150 HD
BRANCH  13  15
ATOM     15  CA  ASN A   7     -11.313  -3.236  17.836  0.00  0.00    +0.158 C 
BRANCH  15  16
ATOM     16  C   ASN A   7     -12.562  -3.288  18.705  0.00  0.00    +0.241 C 
ATOM     17  N   VAL A   8     -12.353  -3.355  20.014  0.00  0.00    -0.298 N 
ATOM     18  H   VAL A   8     -11.377  -3.356  20.373  0.00  0.00    +0.150 HD
ATOM     19  O   ASN A   7     -13.686  -3.268  18.203  0.00  0.00    -0.273 OA
BRANCH  17  20
ATOM     20  CA  VAL A   8     -13.456  -3.427  20.959  0.00  0.00    +0.137 C 
BRANCH  20  21
ATOM     21  CB  VAL A   8     -13.126  -4.371  22.128  0.00  0.00    +0.026 C 
ATOM     22  CG2 VAL A   8     -14.287  -4.433  23.094  0.00  0.00    +0.002 C 
ATOM     23  CG1 VAL A   8     -12.796  -5.761  21.600  0.00  0.00    +0.002 C 
ENDBRANCH  20  21
BRANCH  20  24
ATOM     24  C   VAL A   8     -13.835  -2.040  21.477  0.00  0.00    +0.227 C 
ATOM     25  O   VAL A   8     -14.972  -1.608  21.317  0.00  0.00    -0.286 OA
ENDBRANCH  20  24
ENDBRANCH  17  20
ENDBRANCH  15  16
BRANCH  15  26
ATOM     26  CB  ASN A   7     -11.384  -2.024  16.905  0.00  0.00    +0.114 C 
BRANCH  26  27
ATOM     27  CG  ASN A   7     -10.131  -1.846  16.075  0.00  0.00    +0.222 C 
ATOM     28  ND2 ASN A   7      -8.978  -1.909  16.725  0.00  0.00    -0.329 N 
ATOM     29 HD21 ASN A   7      -8.968  -2.080  17.751  0.00  0.00    +0.145 HD
ATOM     30 HD22 ASN A   7      -8.083  -1.788  16.209  0.00  0.00    +0.145 HD
ATOM     31  OD1 ASN A   7     -10.200  -1.646  14.861  0.00  0.00    -0.275 OA
ENDBRANCH  26  27
ENDBRANCH  15  26
ENDBRANCH  13  15
ENDBRANCH  10  11
BRANCH  10  32
ATOM     32  CB  LEU A   6     -11.453  -7.929  17.257  0.00  0.00    +0.029 C 
BRANCH  32  33
ATOM     33  CG  LEU A   6     -12.881  -7.547  17.658  0.00  0.00    +0.002 C 
ATOM     34  CD2 LEU A   6     -13.582  -8.727  18.323  0.00  0.00    +0.000 C 
ATOM     35  CD1 LEU A   6     -13.673  -7.055  16.455  0.00  0.00    +0.000 C 
ENDBRANCH  32  33
ENDBRANCH  10  32
ENDBRANCH   7  10
ENDBRANCH   5   6
ENDBRANCH   3   5
BRANCH   1  36
ATOM     36  CA  VAL A   4      -6.985 -11.419  14.627  0.00  0.00    +0.149 C 
BRANCH  36  38
ATOM     37  C   GLY A   3      -5.257 -12.698  13.478  0.00  0.00    +0.243 C 
ATOM     38  N   VAL A   4      -5.811 -12.285  14.614  0.00  0.00    -0.297 N 
ATOM     39  H   VAL A   4      -5.396 -12.588  15.518  0.00  0.00    +0.150 HD
ATOM     40  O   GLY A   3      -5.710 -12.416  12.369  0.00  0.00    -0.273 OA
BRANCH  37  41
ATOM     41  CA  GLY A   3      -4.015 -13.554  13.612  0.00  0.00    +0.176 C 
BRANCH  41  44
ATOM     42  C   LEU A   2      -4.111 -15.934  13.131  0.00  0.00    +0.241 C 
ATOM     43  O   LEU A   2      -4.235 -16.224  14.319  0.00  0.00    -0.273 OA
ATOM     44  N   GLY A   3      -3.999 -14.682  12.697  0.00  0.00    -0.295 N 
ATOM     45  H   GLY A   3      -3.897 -14.506  11.677  0.00  0.00    +0.150 HD
BRANCH  42  46
ATOM     46  CA  LEU A   2      -4.083 -17.026  12.074  0.00  0.00    +0.149 C 
BRANCH  46  48
ATOM     47  C   VAL A   1      -1.839 -17.922  11.717  0.00  0.00    +0.238 C 
ATOM     48  N   LEU A   2      -3.012 -17.982  12.340  0.00  0.00    -0.297 N 
ATOM     49  H   LEU A   2      -3.172 -18.735  13.040  0.00  0.00    +0.150 HD
ATOM     50  O   VAL A   1      -1.573 -17.070  10.870  0.00  0.00    -0.274 OA
BRANCH  47  51
ATOM     51  CA  VAL A   1      -0.818 -18.994  12.092  0.00  0.00    +0.145 C 
BRANCH  51  52
ATOM     52  CB  VAL A   1       0.440 -18.339  12.693  0.00  0.00    +0.025 C 
ATOM     53  CG2 VAL A   1       0.054 -17.337  13.768  0.00  0.00    +0.002 C 
ATOM     54  CG1 VAL A   1       1.369 -19.399  13.257  0.00  0.00    +0.002 C 
ENDBRANCH  51  52
BRANCH  51  55
ATOM     55  N   VAL A   1      -0.498 -19.802  10.925  0.00  0.00    -0.238 NA
ATOM     56  H   VAL A   1       0.194 -19.450  10.233  0.00  0.00    +0.142 HD
ENDBRANCH  51  55
ENDBRANCH  47  51
ENDBRANCH  46  48
BRANCH  46  57
ATOM     57  CB  LEU A   2      -5.442 -17.732  12.045  0.00  0.00    +0.029 C 
BRANCH  57  58
ATOM     58  CG  LEU A   2      -5.788 -18.636  10.863  0.00  0.00    +0.002 C 
ATOM     59  CD2 LEU A   2      -7.127 -19.316  11.105  0.00  0.00    +0.000 C 
ATOM     60  CD1 LEU A   2      -5.822 -17.834   9.573  0.00  0.00    +0.000 C 
ENDBRANCH  57  58
ENDBRANCH  46  57
ENDBRANCH  42  46
ENDBRANCH  41  44
ENDBRANCH  37  41
ENDBRANCH  36  38
BRANCH  36  61
ATOM     61  CB  VAL A   4      -8.231 -12.157  15.161  0.00  0.00    +0.027 C 
ATOM     62  CG2 VAL A   4      -9.413 -11.199  15.260  0.00  0.00    +0.002 C 
ATOM     63  CG1 VAL A   4      -8.569 -13.349  14.277  0.00  0.00    +0.002 C 
ENDBRANCH  36  61
ENDBRANCH   1  36
TORSDOF 25
REMARK  Name = ../refined-set-2016/4xtv/4xtv_pocket.pdb
REMARK  235 active torsions:
REMARK  status: ('A' for Active; 'I' for Inactive)
REMARK    1  A    between atoms: _1  and  _3
REMARK    2  A    between atoms: _3  and  _4
REMARK    3  A    between atoms: _3  and  _6
REMARK    4  A    between atoms: _6  and  _7
REMARK    5  A    between atoms: _10  and  _12
REMARK    6  A    between atoms: _12  and  _13
REMARK    7  A    between atoms: _15  and  _17
REMARK    8  A    between atoms: _17  and  _18
REMARK    9  A    between atoms: _17  and  _20
REMARK   10  A    between atoms: _20  and  _21
REMARK   11  A    between atoms: _23  and  _25
REMARK   12  A    between atoms: _25  and  _26
REMARK   13  A    between atoms: _25  and  _28
REMARK   14  A    between atoms: _28  and  _29
REMARK   15  A    between atoms: _32  and  _34
REMARK   16  A    between atoms: _34  and  _35
REMARK   17  A    between atoms: _34  and  _37
REMARK   18  A    between atoms: _37  and  _38
REMARK   19  A    between atoms: _43  and  _45
REMARK   20  A    between atoms: _45  and  _46
REMARK   21  A    between atoms: _49  and  _51
REMARK   22  A    between atoms: _51  and  _52
REMARK   23  A    between atoms: _51  and  _54
REMARK   24  A    between atoms: _54  and  _55
REMARK   25  A    between atoms: _58  and  _60
REMARK   26  A    between atoms: _60  and  _61
REMARK   27  A    between atoms: _60  and  _63
REMARK   28  A    between atoms: _63  and  _64
REMARK   29  A    between atoms: _67  and  _69
REMARK   30  A    between atoms: _69  and  _70
REMARK   31  A    between atoms: _69  and  _72
REMARK   32  A    between atoms: _72  and  _73
REMARK   33  A    between atoms: _76  and  _78
REMARK   34  A    between atoms: _78  and  _79
REMARK   35  A    between atoms: _82  and  _84
REMARK   36  A    between atoms: _84  and  _85
REMARK   37  A    between atoms: _84  and  _87
REMARK   38  A    between atoms: _87  and  _88
REMARK   39  A    between atoms: _88  and  _89
REMARK   40  A    between atoms: _94  and  _96
REMARK   41  A    between atoms: _96  and  _97
REMARK   42  A    between atoms: _96  and  _99
REMARK   43  A    between atoms: _99  and  _100
REMARK   44  A    between atoms: _103  and  _105
REMARK   45  A    between atoms: _105  and  _106
REMARK   46  A    between atoms: _109  and  _111
REMARK   47  A    between atoms: _111  and  _112
REMARK   48  A    between atoms: _114  and  _116
REMARK   49  A    between atoms: _116  and  _117
REMARK   50  A    between atoms: _116  and  _119
REMARK   51  A    between atoms: _119  and  _120
REMARK   52  A    between atoms: _120  and  _121
REMARK   53  A    between atoms: _121  and  _122
REMARK   54  A    between atoms: _131  and  _133
REMARK   55  A    between atoms: _133  and  _134
REMARK   56  A    between atoms: _136  and  _138
REMARK   57  A    between atoms: _138  and  _139
REMARK   58  A    between atoms: _138  and  _141
REMARK   59  A    between atoms: _141  and  _142
REMARK   60  A    between atoms: _142  and  _143
REMARK   61  A    between atoms: _143  and  _144
REMARK   62  A    between atoms: _153  and  _155
REMARK   63  A    between atoms: _155  and  _156
REMARK   64  A    between atoms: _155  and  _158
REMARK   65  A    between atoms: _158  and  _159
REMARK   66  A    between atoms: _164  and  _166
REMARK   67  A    between atoms: _166  and  _167
REMARK   68  A    between atoms: _169  and  _171
REMARK   69  A    between atoms: _171  and  _172
REMARK   70  A    between atoms: _171  and  _174
REMARK   71  A    between atoms: _174  and  _175
REMARK   72  A    between atoms: _175  and  _176
REMARK   73  A    between atoms: _176  and  _177
REMARK   74  A    between atoms: _186  and  _188
REMARK   75  A    between atoms: _188  and  _189
REMARK   76  A    between atoms: _191  and  _193
REMARK   77  A    between atoms: _193  and  _194
REMARK   78  A    between atoms: _193  and  _196
REMARK   79  A    between atoms: _196  and  _197
REMARK   80  A    between atoms: _207  and  _209
REMARK   81  A    between atoms: _209  and  _210
REMARK   82  A    between atoms: _213  and  _215
REMARK   83  A    between atoms: _215  and  _216
REMARK   84  A    between atoms: _219  and  _221
REMARK   85  A    between atoms: _221  and  _222
REMARK   86  A    between atoms: _221  and  _224
REMARK   87  A    between atoms: _224  and  _225
REMARK   88  A    between atoms: _228  and  _230
REMARK   89  A    between atoms: _230  and  _231
REMARK   90  A    between atoms: _230  and  _233
REMARK   91  A    between atoms: _233  and  _234
REMARK   92  A    between atoms: _234  and  _235
REMARK   93  A    between atoms: _240  and  _242
REMARK   94  A    between atoms: _242  and  _243
REMARK   95  A    between atoms: _242  and  _245
REMARK   96  A    between atoms: _245  and  _246
REMARK   97  A    between atoms: _249  and  _251
REMARK   98  A    between atoms: _251  and  _252
REMARK   99  A    between atoms: _251  and  _254
REMARK  100  A    between atoms: _254  and  _255
REMARK  101  A    between atoms: _258  and  _260
REMARK  102  A    between atoms: _260  and  _261
REMARK  103  A    between atoms: _260  and  _263
REMARK  104  A    between atoms: _263  and  _264
REMARK  105  A    between atoms: _267  and  _269
REMARK  106  A    between atoms: _269  and  _270
REMARK  107  A    between atoms: _269  and  _272
REMARK  108  A    between atoms: _272  and  _273
REMARK  109  A    between atoms: _275  and  _277
REMARK  110  A    between atoms: _277  and  _278
REMARK  111  A    between atoms: _277  and  _280
REMARK  112  A    between atoms: _283  and  _285
REMARK  113  A    between atoms: _285  and  _286
REMARK  114  A    between atoms: _285  and  _288
REMARK  115  A    between atoms: _288  and  _289
REMARK  116  A    between atoms: _289  and  _290
REMARK  117  A    between atoms: _290  and  _291
REMARK  118  A    between atoms: _291  and  _292
REMARK  119  A    between atoms: _296  and  _298
REMARK  120  A    between atoms: _298  and  _299
REMARK  121  A    between atoms: _298  and  _301
REMARK  122  A    between atoms: _301  and  _302
REMARK  123  A    between atoms: _313  and  _314
REMARK  124  A    between atoms: _319  and  _321
REMARK  125  A    between atoms: _321  and  _322
REMARK  126  A    between atoms: _321  and  _324
REMARK  127  A    between atoms: _324  and  _325
REMARK  128  A    between atoms: _330  and  _332
REMARK  129  A    between atoms: _332  and  _333
REMARK  130  A    between atoms: _332  and  _335
REMARK  131  A    between atoms: _335  and  _336
REMARK  132  A    between atoms: _339  and  _341
REMARK  133  A    between atoms: _341  and  _342
REMARK  134  A    between atoms: _341  and  _344
REMARK  135  A    between atoms: _347  and  _349
REMARK  136  A    between atoms: _349  and  _350
REMARK  137  A    between atoms: _352  and  _354
REMARK  138  A    between atoms: _354  and  _355
REMARK  139  A    between atoms: _354  and  _357
REMARK  140  A    between atoms: _357  and  _358
REMARK  141  A    between atoms: _358  and  _359
REMARK  142  A    between atoms: _359  and  _360
REMARK  143  A    between atoms: _360  and  _361
REMARK  144  A    between atoms: _365  and  _367
REMARK  145  A    between atoms: _367  and  _368
REMARK  146  A    between atoms: _367  and  _370
REMARK  147  A    between atoms: _370  and  _371
REMARK  148  A    between atoms: _374  and  _376
REMARK  149  A    between atoms: _376  and  _377
REMARK  150  A    between atoms: _380  and  _382
REMARK  151  A    between atoms: _382  and  _383
REMARK  152  A    between atoms: _385  and  _387
REMARK  153  A    between atoms: _387  and  _388
REMARK  154  A    between atoms: _387  and  _390
REMARK  155  A    between atoms: _390  and  _391
REMARK  156  A    between atoms: _394  and  _396
REMARK  157  A    between atoms: _396  and  _397
REMARK  158  A    between atoms: _396  and  _399
REMARK  159  A    between atoms: _399  and  _400
REMARK  160  A    between atoms: _403  and  _405
REMARK  161  A    between atoms: _405  and  _406
REMARK  162  A    between atoms: _409  and  _411
REMARK  163  A    between atoms: _411  and  _412
REMARK  164  A    between atoms: _411  and  _414
REMARK  165  A    between atoms: _414  and  _415
REMARK  166  A    between atoms: _415  and  _416
REMARK  167  A    between atoms: _419  and  _421
REMARK  168  A    between atoms: _421  and  _422
REMARK  169  A    between atoms: _421  and  _424
REMARK  170  A    between atoms: _427  and  _429
REMARK  171  A    between atoms: _429  and  _430
REMARK  172  A    between atoms: _429  and  _432
REMARK  173  A    between atoms: _432  and  _433
REMARK  174  A    between atoms: _436  and  _438
REMARK  175  A    between atoms: _438  and  _439
REMARK  176  A    between atoms: _441  and  _443
REMARK  177  A    between atoms: _443  and  _444
REMARK  178  A    between atoms: _443  and  _446
REMARK  179  A    between atoms: _449  and  _451
REMARK  180  A    between atoms: _451  and  _452
REMARK  181  A    between atoms: _454  and  _456
REMARK  182  A    between atoms: _456  and  _457
REMARK  183  A    between atoms: _456  and  _459
REMARK  184  A    between atoms: _459  and  _460
REMARK  185  A    between atoms: _463  and  _465
REMARK  186  A    between atoms: _465  and  _466
REMARK  187  A    between atoms: _465  and  _468
REMARK  188  A    between atoms: _468  and  _469
REMARK  189  A    between atoms: _474  and  _476
REMARK  190  A    between atoms: _476  and  _477
REMARK  191  A    between atoms: _476  and  _479
REMARK  192  A    between atoms: _482  and  _484
REMARK  193  A    between atoms: _484  and  _485
REMARK  194  A    between atoms: _484  and  _487
REMARK  195  A    between atoms: _487  and  _488
REMARK  196  A    between atoms: _488  and  _489
REMARK  197  A    between atoms: _494  and  _496
REMARK  198  A    between atoms: _496  and  _497
REMARK  199  A    between atoms: _501  and  _502
REMARK  200  A    between atoms: _507  and  _509
REMARK  201  A    between atoms: _509  and  _510
REMARK  202  A    between atoms: _509  and  _512
REMARK  203  A    between atoms: _512  and  _513
REMARK  204  A    between atoms: _513  and  _514
REMARK  205  A    between atoms: _517  and  _519
REMARK  206  A    between atoms: _519  and  _520
REMARK  207  A    between atoms: _519  and  _522
REMARK  208  A    between atoms: _525  and  _527
REMARK  209  A    between atoms: _527  and  _528
REMARK  210  A    between atoms: _527  and  _530
REMARK  211  A    between atoms: _530  and  _531
REMARK  212  A    between atoms: _535  and  _536
REMARK  213  A    between atoms: _541  and  _543
REMARK  214  A    between atoms: _543  and  _544
REMARK  215  A    between atoms: _543  and  _546
REMARK  216  A    between atoms: _546  and  _547
REMARK  217  A    between atoms: _550  and  _552
REMARK  218  A    between atoms: _552  and  _553
REMARK  219  A    between atoms: _556  and  _558
REMARK  220  A    between atoms: _558  and  _559
REMARK  221  A    between atoms: _558  and  _561
REMARK  222  A    between atoms: _561  and  _562
REMARK  223  A    between atoms: _565  and  _567
REMARK  224  A    between atoms: _567  and  _568
REMARK  225  A    between atoms: _567  and  _570
REMARK  226  A    between atoms: _570  and  _571
REMARK  227  A    between atoms: _573  and  _575
REMARK  228  A    between atoms: _575  and  _576
REMARK  229  A    between atoms: _578  and  _580
REMARK  230  A    between atoms: _580  and  _581
REMARK  231  A    between atoms: _580  and  _583
REMARK  232  A    between atoms: _583  and  _584
REMARK  233  A    between atoms: _587  and  _589
REMARK  234  A    between atoms: _589  and  _590
REMARK  235  A    between atoms: _589  and  _592
REMARK                            x       y       z     vdW  Elec       q    Type
REMARK                         _______ _______ _______ _____ _____    ______ ____
ROOT
ATOM      1  C   GLN A   1     -10.754   2.367  19.564  0.00  0.00    +0.238 C 
ATOM      2  N   ALA A   2     -10.315   3.574  19.902  0.00  0.00    -0.297 N 
ATOM      3  H   ALA A   2      -9.662   3.671  20.706  0.00  0.00    +0.150 HD
ATOM      4  O   GLN A   1     -11.570   2.182  18.664  0.00  0.00    -0.274 OA
ENDROOT
BRANCH   2   5
ATOM      5  CA  ALA A   2     -10.728   4.765  19.172  0.00  0.00    +0.149 C 
ATOM      6  CB  ALA A   2     -10.541   5.997  20.036  0.00  0.00    +0.031 C 
BRANCH   5   7
ATOM      7  C   ALA A   2      -9.921   4.893  17.887  0.00  0.00    +0.244 C 
ATOM      8  O   ALA A   2      -8.713   4.661  17.889  0.00  0.00    -0.273 OA
ATOM      9  N   PRO A   3     -10.591   5.248  16.779  0.00  0.00    -0.273 N 
ATOM     10  CD  PRO A   3     -12.056   5.355  16.665  0.00  0.00    +0.094 C 
ATOM     11  CG  PRO A   3     -12.287   5.389  15.176  0.00  0.00    +0.024 C 
ATOM     12  CB  PRO A   3     -11.049   5.961  14.590  0.00  0.00    +0.030 C 
ATOM     13  CA  PRO A   3      -9.929   5.420  15.480  0.00  0.00    +0.140 C 
BRANCH  13  14
ATOM     14  C   PRO A   3      -8.766   6.407  15.526  0.00  0.00    +0.227 C 
ATOM     15  O   PRO A   3      -7.786   6.216  14.807  0.00  0.00    -0.286 OA
ENDBRANCH  13  14
ENDBRANCH   5   7
ENDBRANCH   2   5
BRANCH   1  16
ATOM     16  CA  GLN A   1     -10.193   1.194  20.356  0.00  0.00    +0.145 C 
BRANCH  16  17
ATOM     17  N   GLN A   1     -11.259   0.435  20.995  0.00  0.00    -0.238 NA
ATOM     18  H   GLN A   1     -11.403  -0.558  20.722  0.00  0.00    +0.142 HD
ENDBRANCH  16  17
BRANCH  16  19
ATOM     19  CB  GLN A   1      -9.393   0.287  19.421  0.00  0.00    +0.036 C 
BRANCH  19  20
ATOM     20  CG  GLN A   1      -8.074   0.881  18.958  0.00  0.00    +0.087 C 
BRANCH  20  21
ATOM     21  CD  GLN A   1      -6.973   0.753  19.995  0.00  0.00    +0.219 C 
ATOM     22  NE2 GLN A   1      -6.764   1.807  20.774  0.00  0.00    -0.329 N 
ATOM     23 HE21 GLN A   1      -6.020   1.778  21.500  0.00  0.00    +0.145 HD
ATOM     24 HE22 GLN A   1      -7.345   2.662  20.659  0.00  0.00    +0.145 HD
ATOM     25  OE1 GLN A   1      -6.315  -0.282  20.090  0.00  0.00    -0.275 OA
ENDBRANCH  20  21
ENDBRANCH  19  20
ENDBRANCH  16  19
ENDBRANCH   1  16
TORSDOF 8
REMARK  Name = ../refined-set-2016/4xtv/4xtv_pocket.pdb
REMARK  235 active torsions:
REMARK  status: ('A' for Active; 'I' for Inactive)
REMARK    1  A    between atoms: _1  and  _3
REMARK    2  A    between atoms: _3  and  _4
REMARK    3  A    between atoms: _3  and  _6
REMARK    4  A    between atoms: _6  and  _7
REMARK    5  A    between atoms: _10  and  _12
REMARK    6  A    between atoms: _12  and  _13
REMARK    7  A    between atoms: _15  and  _17
REMARK    8  A    between atoms: _17  and  _18
REMARK    9  A    between atoms: _17  and  _20
REMARK   10  A    between atoms: _20  and  _21
REMARK   11  A    between atoms: _23  and  _25
REMARK   12  A    between atoms: _25  and  _26
REMARK   13  A    between atoms: _25  and  _28
REMARK   14  A    between atoms: _28  and  _29
REMARK   15  A    between atoms: _32  and  _34
REMARK   16  A    between atoms: _34  and  _35
REMARK   17  A    between atoms: _34  and  _37
REMARK   18  A    between atoms: _37  and  _38
REMARK   19  A    between atoms: _43  and  _45
REMARK   20  A    between atoms: _45  and  _46
REMARK   21  A    between atoms: _49  and  _51
REMARK   22  A    between atoms: _51  and  _52
REMARK   23  A    between atoms: _51  and  _54
REMARK   24  A    between atoms: _54  and  _55
REMARK   25  A    between atoms: _58  and  _60
REMARK   26  A    between atoms: _60  and  _61
REMARK   27  A    between atoms: _60  and  _63
REMARK   28  A    between atoms: _63  and  _64
REMARK   29  A    between atoms: _67  and  _69
REMARK   30  A    between atoms: _69  and  _70
REMARK   31  A    between atoms: _69  and  _72
REMARK   32  A    between atoms: _72  and  _73
REMARK   33  A    between atoms: _76  and  _78
REMARK   34  A    between atoms: _78  and  _79
REMARK   35  A    between atoms: _82  and  _84
REMARK   36  A    between atoms: _84  and  _85
REMARK   37  A    between atoms: _84  and  _87
REMARK   38  A    between atoms: _87  and  _88
REMARK   39  A    between atoms: _88  and  _89
REMARK   40  A    between atoms: _94  and  _96
REMARK   41  A    between atoms: _96  and  _97
REMARK   42  A    between atoms: _96  and  _99
REMARK   43  A    between atoms: _99  and  _100
REMARK   44  A    between atoms: _103  and  _105
REMARK   45  A    between atoms: _105  and  _106
REMARK   46  A    between atoms: _109  and  _111
REMARK   47  A    between atoms: _111  and  _112
REMARK   48  A    between atoms: _114  and  _116
REMARK   49  A    between atoms: _116  and  _117
REMARK   50  A    between atoms: _116  and  _119
REMARK   51  A    between atoms: _119  and  _120
REMARK   52  A    between atoms: _120  and  _121
REMARK   53  A    between atoms: _121  and  _122
REMARK   54  A    between atoms: _131  and  _133
REMARK   55  A    between atoms: _133  and  _134
REMARK   56  A    between atoms: _136  and  _138
REMARK   57  A    between atoms: _138  and  _139
REMARK   58  A    between atoms: _138  and  _141
REMARK   59  A    between atoms: _141  and  _142
REMARK   60  A    between atoms: _142  and  _143
REMARK   61  A    between atoms: _143  and  _144
REMARK   62  A    between atoms: _153  and  _155
REMARK   63  A    between atoms: _155  and  _156
REMARK   64  A    between atoms: _155  and  _158
REMARK   65  A    between atoms: _158  and  _159
REMARK   66  A    between atoms: _164  and  _166
REMARK   67  A    between atoms: _166  and  _167
REMARK   68  A    between atoms: _169  and  _171
REMARK   69  A    between atoms: _171  and  _172
REMARK   70  A    between atoms: _171  and  _174
REMARK   71  A    between atoms: _174  and  _175
REMARK   72  A    between atoms: _175  and  _176
REMARK   73  A    between atoms: _176  and  _177
REMARK   74  A    between atoms: _186  and  _188
REMARK   75  A    between atoms: _188  and  _189
REMARK   76  A    between atoms: _191  and  _193
REMARK   77  A    between atoms: _193  and  _194
REMARK   78  A    between atoms: _193  and  _196
REMARK   79  A    between atoms: _196  and  _197
REMARK   80  A    between atoms: _207  and  _209
REMARK   81  A    between atoms: _209  and  _210
REMARK   82  A    between atoms: _213  and  _215
REMARK   83  A    between atoms: _215  and  _216
REMARK   84  A    between atoms: _219  and  _221
REMARK   85  A    between atoms: _221  and  _222
REMARK   86  A    between atoms: _221  and  _224
REMARK   87  A    between atoms: _224  and  _225
REMARK   88  A    between atoms: _228  and  _230
REMARK   89  A    between atoms: _230  and  _231
REMARK   90  A    between atoms: _230  and  _233
REMARK   91  A    between atoms: _233  and  _234
REMARK   92  A    between atoms: _234  and  _235
REMARK   93  A    between atoms: _240  and  _242
REMARK   94  A    between atoms: _242  and  _243
REMARK   95  A    between atoms: _242  and  _245
REMARK   96  A    between atoms: _245  and  _246
REMARK   97  A    between atoms: _249  and  _251
REMARK   98  A    between atoms: _251  and  _252
REMARK   99  A    between atoms: _251  and  _254
REMARK  100  A    between atoms: _254  and  _255
REMARK  101  A    between atoms: _258  and  _260
REMARK  102  A    between atoms: _260  and  _261
REMARK  103  A    between atoms: _260  and  _263
REMARK  104  A    between atoms: _263  and  _264
REMARK  105  A    between atoms: _267  and  _269
REMARK  106  A    between atoms: _269  and  _270
REMARK  107  A    between atoms: _269  and  _272
REMARK  108  A    between atoms: _272  and  _273
REMARK  109  A    between atoms: _275  and  _277
REMARK  110  A    between atoms: _277  and  _278
REMARK  111  A    between atoms: _277  and  _280
REMARK  112  A    between atoms: _283  and  _285
REMARK  113  A    between atoms: _285  and  _286
REMARK  114  A    between atoms: _285  and  _288
REMARK  115  A    between atoms: _288  and  _289
REMARK  116  A    between atoms: _289  and  _290
REMARK  117  A    between atoms: _290  and  _291
REMARK  118  A    between atoms: _291  and  _292
REMARK  119  A    between atoms: _296  and  _298
REMARK  120  A    between atoms: _298  and  _299
REMARK  121  A    between atoms: _298  and  _301
REMARK  122  A    between atoms: _301  and  _302
REMARK  123  A    between atoms: _313  and  _314
REMARK  124  A    between atoms: _319  and  _321
REMARK  125  A    between atoms: _321  and  _322
REMARK  126  A    between atoms: _321  and  _324
REMARK  127  A    between atoms: _324  and  _325
REMARK  128  A    between atoms: _330  and  _332
REMARK  129  A    between atoms: _332  and  _333
REMARK  130  A    between atoms: _332  and  _335
REMARK  131  A    between atoms: _335  and  _336
REMARK  132  A    between atoms: _339  and  _341
REMARK  133  A    between atoms: _341  and  _342
REMARK  134  A    between atoms: _341  and  _344
REMARK  135  A    between atoms: _347  and  _349
REMARK  136  A    between atoms: _349  and  _350
REMARK  137  A    between atoms: _352  and  _354
REMARK  138  A    between atoms: _354  and  _355
REMARK  139  A    between atoms: _354  and  _357
REMARK  140  A    between atoms: _357  and  _358
REMARK  141  A    between atoms: _358  and  _359
REMARK  142  A    between atoms: _359  and  _360
REMARK  143  A    between atoms: _360  and  _361
REMARK  144  A    between atoms: _365  and  _367
REMARK  145  A    between atoms: _367  and  _368
REMARK  146  A    between atoms: _367  and  _370
REMARK  147  A    between atoms: _370  and  _371
REMARK  148  A    between atoms: _374  and  _376
REMARK  149  A    between atoms: _376  and  _377
REMARK  150  A    between atoms: _380  and  _382
REMARK  151  A    between atoms: _382  and  _383
REMARK  152  A    between atoms: _385  and  _387
REMARK  153  A    between atoms: _387  and  _388
REMARK  154  A    between atoms: _387  and  _390
REMARK  155  A    between atoms: _390  and  _391
REMARK  156  A    between atoms: _394  and  _396
REMARK  157  A    between atoms: _396  and  _397
REMARK  158  A    between atoms: _396  and  _399
REMARK  159  A    between atoms: _399  and  _400
REMARK  160  A    between atoms: _403  and  _405
REMARK  161  A    between atoms: _405  and  _406
REMARK  162  A    between atoms: _409  and  _411
REMARK  163  A    between atoms: _411  and  _412
REMARK  164  A    between atoms: _411  and  _414
REMARK  165  A    between atoms: _414  and  _415
REMARK  166  A    between atoms: _415  and  _416
REMARK  167  A    between atoms: _419  and  _421
REMARK  168  A    between atoms: _421  and  _422
REMARK  169  A    between atoms: _421  and  _424
REMARK  170  A    between atoms: _427  and  _429
REMARK  171  A    between atoms: _429  and  _430
REMARK  172  A    between atoms: _429  and  _432
REMARK  173  A    between atoms: _432  and  _433
REMARK  174  A    between atoms: _436  and  _438
REMARK  175  A    between atoms: _438  and  _439
REMARK  176  A    between atoms: _441  and  _443
REMARK  177  A    between atoms: _443  and  _444
REMARK  178  A    between atoms: _443  and  _446
REMARK  179  A    between atoms: _449  and  _451
REMARK  180  A    between atoms: _451  and  _452
REMARK  181  A    between atoms: _454  and  _456
REMARK  182  A    between atoms: _456  and  _457
REMARK  183  A    between atoms: _456  and  _459
REMARK  184  A    between atoms: _459  and  _460
REMARK  185  A    between atoms: _463  and  _465
REMARK  186  A    between atoms: _465  and  _466
REMARK  187  A    between atoms: _465  and  _468
REMARK  188  A    between atoms: _468  and  _469
REMARK  189  A    between atoms: _474  and  _476
REMARK  190  A    between atoms: _476  and  _477
REMARK  191  A    between atoms: _476  and  _479
REMARK  192  A    between atoms: _482  and  _484
REMARK  193  A    between atoms: _484  and  _485
REMARK  194  A    between atoms: _484  and  _487
REMARK  195  A    between atoms: _487  and  _488
REMARK  196  A    between atoms: _488  and  _489
REMARK  197  A    between atoms: _494  and  _496
REMARK  198  A    between atoms: _496  and  _497
REMARK  199  A    between atoms: _501  and  _502
REMARK  200  A    between atoms: _507  and  _509
REMARK  201  A    between atoms: _509  and  _510
REMARK  202  A    between atoms: _509  and  _512
REMARK  203  A    between atoms: _512  and  _513
REMARK  204  A    between atoms: _513  and  _514
REMARK  205  A    between atoms: _517  and  _519
REMARK  206  A    between atoms: _519  and  _520
REMARK  207  A    between atoms: _519  and  _522
REMARK  208  A    between atoms: _525  and  _527
REMARK  209  A    between atoms: _527  and  _528
REMARK  210  A    between atoms: _527  and  _530
REMARK  211  A    between atoms: _530  and  _531
REMARK  212  A    between atoms: _535  and  _536
REMARK  213  A    between atoms: _541  and  _543
REMARK  214  A    between atoms: _543  and  _544
REMARK  215  A    between atoms: _543  and  _546
REMARK  216  A    between atoms: _546  and  _547
REMARK  217  A    between atoms: _550  and  _552
REMARK  218  A    between atoms: _552  and  _553
REMARK  219  A    between atoms: _556  and  _558
REMARK  220  A    between atoms: _558  and  _559
REMARK  221  A    between atoms: _558  and  _561
REMARK  222  A    between atoms: _561  and  _562
REMARK  223  A    between atoms: _565  and  _567
REMARK  224  A    between atoms: _567  and  _568
REMARK  225  A    between atoms: _567  and  _570
REMARK  226  A    between atoms: _570  and  _571
REMARK  227  A    between atoms: _573  and  _575
REMARK  228  A    between atoms: _575  and  _576
REMARK  229  A    between atoms: _578  and  _580
REMARK  230  A    between atoms: _580  and  _581
REMARK  231  A    between atoms: _580  and  _583
REMARK  232  A    between atoms: _583  and  _584
REMARK  233  A    between atoms: _587  and  _589
REMARK  234  A    between atoms: _589  and  _590
REMARK  235  A    between atoms: _589  and  _592
REMARK                            x       y       z     vdW  Elec       q    Type
REMARK                         _______ _______ _______ _____ _____    ______ ____
ROOT
ATOM      1  C   PRO A   4      -9.864   6.275   9.803  0.00  0.00    +0.241 C 
ATOM      2  O   PRO A   4     -11.009   6.723   9.876  0.00  0.00    -0.273 OA
ATOM      3  N   ASP A   5      -9.576   5.110   9.231  0.00  0.00    -0.297 N 
ATOM      4  H   ASP A   5      -8.593   4.771   9.231  0.00  0.00    +0.150 HD
ENDROOT
BRANCH   1   8
ATOM      5  C   ASP A   3      -7.507   5.315  11.605  0.00  0.00    +0.244 C 
ATOM      6  O   ASP A   3      -8.527   4.983  12.208  0.00  0.00    -0.273 OA
ATOM      7  N   PRO A   4      -7.499   6.293  10.684  0.00  0.00    -0.272 N 
ATOM      8  CA  PRO A   4      -8.703   7.083  10.390  0.00  0.00    +0.152 C 
ATOM      9  CB  PRO A   4      -8.208   8.105   9.357  0.00  0.00    +0.031 C 
ATOM     10  CG  PRO A   4      -6.737   8.188   9.577  0.00  0.00    +0.024 C 
ATOM     11  CD  PRO A   4      -6.321   6.801   9.959  0.00  0.00    +0.094 C 
BRANCH   5  12
ATOM     12  CA  ASP A   3      -6.182   4.612  11.891  0.00  0.00    +0.160 C 
BRANCH  12  14
ATOM     13  C   VAL A   2      -4.908   3.920  13.870  0.00  0.00    +0.241 C 
ATOM     14  N   ASP A   3      -6.034   4.389  13.333  0.00  0.00    -0.297 N 
ATOM     15  H   ASP A   3      -6.836   4.605  13.959  0.00  0.00    +0.150 HD
ATOM     16  O   VAL A   2      -3.890   3.716  13.206  0.00  0.00    -0.273 OA
BRANCH  13  17
ATOM     17  CA  VAL A   2      -4.911   3.627  15.380  0.00  0.00    +0.148 C 
BRANCH  17  20
ATOM     18  C   GLU A   1      -4.821   5.061  17.337  0.00  0.00    +0.238 C 
ATOM     19  O   GLU A   1      -3.660   4.726  17.567  0.00  0.00    -0.274 OA
ATOM     20  N   VAL A   2      -5.480   4.657  16.253  0.00  0.00    -0.297 N 
ATOM     21  H   VAL A   2      -6.404   5.075  16.024  0.00  0.00    +0.150 HD
BRANCH  18  22
ATOM     22  CA  GLU A   1      -5.565   5.967  18.316  0.00  0.00    +0.145 C 
BRANCH  22  23
ATOM     23  N   GLU A   1      -6.690   6.657  17.703  0.00  0.00    -0.238 NA
ATOM     24  H   GLU A   1      -7.638   6.234  17.764  0.00  0.00    +0.142 HD
ENDBRANCH  22  23
BRANCH  22  25
ATOM     25  CB  GLU A   1      -6.034   5.140  19.516  0.00  0.00    +0.038 C 
BRANCH  25  26
ATOM     26  CG  GLU A   1      -6.545   5.956  20.690  0.00  0.00    +0.116 C 
BRANCH  26  27
ATOM     27  CD  GLU A   1      -7.126   5.087  21.788  0.00  0.00    +0.365 C 
ATOM     28  OE2 GLU A   1      -6.758   5.286  22.966  0.00  0.00    -0.246 OA
ATOM     29  OE1 GLU A   1      -7.947   4.198  21.474  0.00  0.00    -0.246 OA
ENDBRANCH  26  27
ENDBRANCH  25  26
ENDBRANCH  22  25
ENDBRANCH  18  22
ENDBRANCH  17  20
BRANCH  17  30
ATOM     30  CB  VAL A   2      -5.560   2.242  15.642  0.00  0.00    +0.027 C 
ATOM     31  CG2 VAL A   2      -5.127   1.700  16.997  0.00  0.00    +0.002 C 
ATOM     32  CG1 VAL A   2      -7.076   2.329  15.560  0.00  0.00    +0.002 C 
ENDBRANCH  17  30
ENDBRANCH  13  17
ENDBRANCH  12  14
BRANCH  12  33
ATOM     33  CB  ASP A   3      -6.121   3.280  11.129  0.00  0.00    +0.143 C 
BRANCH  33  34
ATOM     34  CG  ASP A   3      -6.114   3.462   9.620  0.00  0.00    +0.367 C 
ATOM     35  OD2 ASP A   3      -5.022   3.663   9.044  0.00  0.00    -0.246 OA
ATOM     36  OD1 ASP A   3      -7.199   3.399   9.003  0.00  0.00    -0.246 OA
ENDBRANCH  33  34
ENDBRANCH  12  33
ENDBRANCH   5  12
ENDBRANCH   1   8
BRANCH   3  37
ATOM     37  CA  ASP A   5     -10.614   4.297   8.602  0.00  0.00    +0.160 C 
BRANCH  37  38
ATOM     38  C   ASP A   5     -11.116   3.183   9.514  0.00  0.00    +0.241 C 
ATOM     39  N   ALA A   6     -10.655   3.190  10.760  0.00  0.00    -0.297 N 
ATOM     40  H   ALA A   6     -10.009   3.949  11.057  0.00  0.00    +0.150 HD
ATOM     41  O   ASP A   5     -11.909   2.339   9.098  0.00  0.00    -0.273 OA
BRANCH  39  42
ATOM     42  CA  ALA A   6     -11.031   2.161  11.722  0.00  0.00    +0.149 C 
ATOM     43  CB  ALA A   6      -9.940   2.001  12.770  0.00  0.00    +0.031 C 
BRANCH  42  44
ATOM     44  C   ALA A   6     -12.360   2.467  12.401  0.00  0.00    +0.241 C 
ATOM     45  N   THR A   7     -12.939   1.444  13.019  0.00  0.00    -0.295 N 
ATOM     46  H   THR A   7     -12.578   0.484  12.848  0.00  0.00    +0.150 HD
ATOM     47  O   ALA A   6     -12.850   3.595  12.360  0.00  0.00    -0.273 OA
BRANCH  45  48
ATOM     48  CA  THR A   7     -14.062   1.622  13.927  0.00  0.00    +0.176 C 
BRANCH  48  49
ATOM     49  C   THR A   7     -13.943   0.578  15.029  0.00  0.00    +0.243 C 
ATOM     50  N   SER A   8     -14.831   0.640  16.013  0.00  0.00    -0.296 N 
ATOM     51  H   SER A   8     -15.557   1.385  15.996  0.00  0.00    +0.150 HD
ATOM     52  O   THR A   7     -13.050  -0.263  14.991  0.00  0.00    -0.273 OA
BRANCH  50  53
ATOM     53  CA  SER A   8     -14.813  -0.311  17.117  0.00  0.00    +0.166 C 
BRANCH  53  54
ATOM     54  CB  SER A   8     -16.235  -0.603  17.555  0.00  0.00    +0.229 C 
ATOM     55  OG  SER A   8     -17.162   0.103  17.166  0.00  0.00    -0.286 OA
ENDBRANCH  53  54
BRANCH  53  56
ATOM     56  C   SER A   8     -14.019   0.244  18.299  0.00  0.00    +0.165 C 
BRANCH  56  57
ATOM     57  O   SER A   8     -14.740   1.281  18.949  0.00  0.00    -0.380 OA
ATOM     58  H   SER A   8     -14.912   2.015  18.307  0.00  0.00    +0.211 HD
ENDBRANCH  56  57
ENDBRANCH  53  56
ENDBRANCH  50  53
ENDBRANCH  48  49
BRANCH  48  59
ATOM     59  CB  THR A   7     -15.418   1.474  13.217  0.00  0.00    +0.137 C 
ATOM     60  CG2 THR A   7     -15.651   0.028  12.806  0.00  0.00    +0.034 C 
BRANCH  59  61
ATOM     61  OG1 THR A   7     -16.467   1.892  14.101  0.00  0.00    -0.382 OA
ATOM     62  HG1 THR A   7     -16.327   2.839  14.353  0.00  0.00    +0.210 HD
ENDBRANCH  59  61
ENDBRANCH  48  59
ENDBRANCH  45  48
ENDBRANCH  42  44
ENDBRANCH  39  42
ENDBRANCH  37  38
BRANCH  37  63
ATOM     63  CB  ASP A   5     -10.107   3.706   7.285  0.00  0.00    +0.143 C 
BRANCH  63  64
ATOM     64  CG  ASP A   5      -9.845   4.765   6.238  0.00  0.00    +0.367 C 
ATOM     65  OD2 ASP A   5     -10.545   5.797   6.254  0.00  0.00    -0.246 OA
ATOM     66  OD1 ASP A   5      -8.940   4.568   5.401  0.00  0.00    -0.246 OA
ENDBRANCH  63  64
ENDBRANCH  37  63
ENDBRANCH   3  37
TORSDOF 27
REMARK  Name = ../refined-set-2016/4xtv/4xtv_pocket.pdb
REMARK  235 active torsions:
REMARK  status: ('A' for Active; 'I' for Inactive)
REMARK    1  A    between atoms: _1  and  _3
REMARK    2  A    between atoms: _3  and  _4
REMARK    3  A    between atoms: _3  and  _6
REMARK    4  A    between atoms: _6  and  _7
REMARK    5  A    between atoms: _10  and  _12
REMARK    6  A    between atoms: _12  and  _13
REMARK    7  A    between atoms: _15  and  _17
REMARK    8  A    between atoms: _17  and  _18
REMARK    9  A    between atoms: _17  and  _20
REMARK   10  A    between atoms: _20  and  _21
REMARK   11  A    between atoms: _23  and  _25
REMARK   12  A    between atoms: _25  and  _26
REMARK   13  A    between atoms: _25  and  _28
REMARK   14  A    between atoms: _28  and  _29
REMARK   15  A    between atoms: _32  and  _34
REMARK   16  A    between atoms: _34  and  _35
REMARK   17  A    between atoms: _34  and  _37
REMARK   18  A    between atoms: _37  and  _38
REMARK   19  A    between atoms: _43  and  _45
REMARK   20  A    between atoms: _45  and  _46
REMARK   21  A    between atoms: _49  and  _51
REMARK   22  A    between atoms: _51  and  _52
REMARK   23  A    between atoms: _51  and  _54
REMARK   24  A    between atoms: _54  and  _55
REMARK   25  A    between atoms: _58  and  _60
REMARK   26  A    between atoms: _60  and  _61
REMARK   27  A    between atoms: _60  and  _63
REMARK   28  A    between atoms: _63  and  _64
REMARK   29  A    between atoms: _67  and  _69
REMARK   30  A    between atoms: _69  and  _70
REMARK   31  A    between atoms: _69  and  _72
REMARK   32  A    between atoms: _72  and  _73
REMARK   33  A    between atoms: _76  and  _78
REMARK   34  A    between atoms: _78  and  _79
REMARK   35  A    between atoms: _82  and  _84
REMARK   36  A    between atoms: _84  and  _85
REMARK   37  A    between atoms: _84  and  _87
REMARK   38  A    between atoms: _87  and  _88
REMARK   39  A    between atoms: _88  and  _89
REMARK   40  A    between atoms: _94  and  _96
REMARK   41  A    between atoms: _96  and  _97
REMARK   42  A    between atoms: _96  and  _99
REMARK   43  A    between atoms: _99  and  _100
REMARK   44  A    between atoms: _103  and  _105
REMARK   45  A    between atoms: _105  and  _106
REMARK   46  A    between atoms: _109  and  _111
REMARK   47  A    between atoms: _111  and  _112
REMARK   48  A    between atoms: _114  and  _116
REMARK   49  A    between atoms: _116  and  _117
REMARK   50  A    between atoms: _116  and  _119
REMARK   51  A    between atoms: _119  and  _120
REMARK   52  A    between atoms: _120  and  _121
REMARK   53  A    between atoms: _121  and  _122
REMARK   54  A    between atoms: _131  and  _133
REMARK   55  A    between atoms: _133  and  _134
REMARK   56  A    between atoms: _136  and  _138
REMARK   57  A    between atoms: _138  and  _139
REMARK   58  A    between atoms: _138  and  _141
REMARK   59  A    between atoms: _141  and  _142
REMARK   60  A    between atoms: _142  and  _143
REMARK   61  A    between atoms: _143  and  _144
REMARK   62  A    between atoms: _153  and  _155
REMARK   63  A    between atoms: _155  and  _156
REMARK   64  A    between atoms: _155  and  _158
REMARK   65  A    between atoms: _158  and  _159
REMARK   66  A    between atoms: _164  and  _166
REMARK   67  A    between atoms: _166  and  _167
REMARK   68  A    between atoms: _169  and  _171
REMARK   69  A    between atoms: _171  and  _172
REMARK   70  A    between atoms: _171  and  _174
REMARK   71  A    between atoms: _174  and  _175
REMARK   72  A    between atoms: _175  and  _176
REMARK   73  A    between atoms: _176  and  _177
REMARK   74  A    between atoms: _186  and  _188
REMARK   75  A    between atoms: _188  and  _189
REMARK   76  A    between atoms: _191  and  _193
REMARK   77  A    between atoms: _193  and  _194
REMARK   78  A    between atoms: _193  and  _196
REMARK   79  A    between atoms: _196  and  _197
REMARK   80  A    between atoms: _207  and  _209
REMARK   81  A    between atoms: _209  and  _210
REMARK   82  A    between atoms: _213  and  _215
REMARK   83  A    between atoms: _215  and  _216
REMARK   84  A    between atoms: _219  and  _221
REMARK   85  A    between atoms: _221  and  _222
REMARK   86  A    between atoms: _221  and  _224
REMARK   87  A    between atoms: _224  and  _225
REMARK   88  A    between atoms: _228  and  _230
REMARK   89  A    between atoms: _230  and  _231
REMARK   90  A    between atoms: _230  and  _233
REMARK   91  A    between atoms: _233  and  _234
REMARK   92  A    between atoms: _234  and  _235
REMARK   93  A    between atoms: _240  and  _242
REMARK   94  A    between atoms: _242  and  _243
REMARK   95  A    between atoms: _242  and  _245
REMARK   96  A    between atoms: _245  and  _246
REMARK   97  A    between atoms: _249  and  _251
REMARK   98  A    between atoms: _251  and  _252
REMARK   99  A    between atoms: _251  and  _254
REMARK  100  A    between atoms: _254  and  _255
REMARK  101  A    between atoms: _258  and  _260
REMARK  102  A    between atoms: _260  and  _261
REMARK  103  A    between atoms: _260  and  _263
REMARK  104  A    between atoms: _263  and  _264
REMARK  105  A    between atoms: _267  and  _269
REMARK  106  A    between atoms: _269  and  _270
REMARK  107  A    between atoms: _269  and  _272
REMARK  108  A    between atoms: _272  and  _273
REMARK  109  A    between atoms: _275  and  _277
REMARK  110  A    between atoms: _277  and  _278
REMARK  111  A    between atoms: _277  and  _280
REMARK  112  A    between atoms: _283  and  _285
REMARK  113  A    between atoms: _285  and  _286
REMARK  114  A    between atoms: _285  and  _288
REMARK  115  A    between atoms: _288  and  _289
REMARK  116  A    between atoms: _289  and  _290
REMARK  117  A    between atoms: _290  and  _291
REMARK  118  A    between atoms: _291  and  _292
REMARK  119  A    between atoms: _296  and  _298
REMARK  120  A    between atoms: _298  and  _299
REMARK  121  A    between atoms: _298  and  _301
REMARK  122  A    between atoms: _301  and  _302
REMARK  123  A    between atoms: _313  and  _314
REMARK  124  A    between atoms: _319  and  _321
REMARK  125  A    between atoms: _321  and  _322
REMARK  126  A    between atoms: _321  and  _324
REMARK  127  A    between atoms: _324  and  _325
REMARK  128  A    between atoms: _330  and  _332
REMARK  129  A    between atoms: _332  and  _333
REMARK  130  A    between atoms: _332  and  _335
REMARK  131  A    between atoms: _335  and  _336
REMARK  132  A    between atoms: _339  and  _341
REMARK  133  A    between atoms: _341  and  _342
REMARK  134  A    between atoms: _341  and  _344
REMARK  135  A    between atoms: _347  and  _349
REMARK  136  A    between atoms: _349  and  _350
REMARK  137  A    between atoms: _352  and  _354
REMARK  138  A    between atoms: _354  and  _355
REMARK  139  A    between atoms: _354  and  _357
REMARK  140  A    between atoms: _357  and  _358
REMARK  141  A    between atoms: _358  and  _359
REMARK  142  A    between atoms: _359  and  _360
REMARK  143  A    between atoms: _360  and  _361
REMARK  144  A    between atoms: _365  and  _367
REMARK  145  A    between atoms: _367  and  _368
REMARK  146  A    between atoms: _367  and  _370
REMARK  147  A    between atoms: _370  and  _371
REMARK  148  A    between atoms: _374  and  _376
REMARK  149  A    between atoms: _376  and  _377
REMARK  150  A    between atoms: _380  and  _382
REMARK  151  A    between atoms: _382  and  _383
REMARK  152  A    between atoms: _385  and  _387
REMARK  153  A    between atoms: _387  and  _388
REMARK  154  A    between atoms: _387  and  _390
REMARK  155  A    between atoms: _390  and  _391
REMARK  156  A    between atoms: _394  and  _396
REMARK  157  A    between atoms: _396  and  _397
REMARK  158  A    between atoms: _396  and  _399
REMARK  159  A    between atoms: _399  and  _400
REMARK  160  A    between atoms: _403  and  _405
REMARK  161  A    between atoms: _405  and  _406
REMARK  162  A    between atoms: _409  and  _411
REMARK  163  A    between atoms: _411  and  _412
REMARK  164  A    between atoms: _411  and  _414
REMARK  165  A    between atoms: _414  and  _415
REMARK  166  A    between atoms: _415  and  _416
REMARK  167  A    between atoms: _419  and  _421
REMARK  168  A    between atoms: _421  and  _422
REMARK  169  A    between atoms: _421  and  _424
REMARK  170  A    between atoms: _427  and  _429
REMARK  171  A    between atoms: _429  and  _430
REMARK  172  A    between atoms: _429  and  _432
REMARK  173  A    between atoms: _432  and  _433
REMARK  174  A    between atoms: _436  and  _438
REMARK  175  A    between atoms: _438  and  _439
REMARK  176  A    between atoms: _441  and  _443
REMARK  177  A    between atoms: _443  and  _444
REMARK  178  A    between atoms: _443  and  _446
REMARK  179  A    between atoms: _449  and  _451
REMARK  180  A    between atoms: _451  and  _452
REMARK  181  A    between atoms: _454  and  _456
REMARK  182  A    between atoms: _456  and  _457
REMARK  183  A    between atoms: _456  and  _459
REMARK  184  A    between atoms: _459  and  _460
REMARK  185  A    between atoms: _463  and  _465
REMARK  186  A    between atoms: _465  and  _466
REMARK  187  A    between atoms: _465  and  _468
REMARK  188  A    between atoms: _468  and  _469
REMARK  189  A    between atoms: _474  and  _476
REMARK  190  A    between atoms: _476  and  _477
REMARK  191  A    between atoms: _476  and  _479
REMARK  192  A    between atoms: _482  and  _484
REMARK  193  A    between atoms: _484  and  _485
REMARK  194  A    between atoms: _484  and  _487
REMARK  195  A    between atoms: _487  and  _488
REMARK  196  A    between atoms: _488  and  _489
REMARK  197  A    between atoms: _494  and  _496
REMARK  198  A    between atoms: _496  and  _497
REMARK  199  A    between atoms: _501  and  _502
REMARK  200  A    between atoms: _507  and  _509
REMARK  201  A    between atoms: _509  and  _510
REMARK  202  A    between atoms: _509  and  _512
REMARK  203  A    between atoms: _512  and  _513
REMARK  204  A    between atoms: _513  and  _514
REMARK  205  A    between atoms: _517  and  _519
REMARK  206  A    between atoms: _519  and  _520
REMARK  207  A    between atoms: _519  and  _522
REMARK  208  A    between atoms: _525  and  _527
REMARK  209  A    between atoms: _527  and  _528
REMARK  210  A    between atoms: _527  and  _530
REMARK  211  A    between atoms: _530  and  _531
REMARK  212  A    between atoms: _535  and  _536
REMARK  213  A    between atoms: _541  and  _543
REMARK  214  A    between atoms: _543  and  _544
REMARK  215  A    between atoms: _543  and  _546
REMARK  216  A    between atoms: _546  and  _547
REMARK  217  A    between atoms: _550  and  _552
REMARK  218  A    between atoms: _552  and  _553
REMARK  219  A    between atoms: _556  and  _558
REMARK  220  A    between atoms: _558  and  _559
REMARK  221  A    between atoms: _558  and  _561
REMARK  222  A    between atoms: _561  and  _562
REMARK  223  A    between atoms: _565  and  _567
REMARK  224  A    between atoms: _567  and  _568
REMARK  225  A    between atoms: _567  and  _570
REMARK  226  A    between atoms: _570  and  _571
REMARK  227  A    between atoms: _573  and  _575
REMARK  228  A    between atoms: _575  and  _576
REMARK  229  A    between atoms: _578  and  _580
REMARK  230  A    between atoms: _580  and  _581
REMARK  231  A    between atoms: _580  and  _583
REMARK  232  A    between atoms: _583  and  _584
REMARK  233  A    between atoms: _587  and  _589
REMARK  234  A    between atoms: _589  and  _590
REMARK  235  A    between atoms: _589  and  _592
REMARK                            x       y       z     vdW  Elec       q    Type
REMARK                         _______ _______ _______ _____ _____    ______ ____
ROOT
ATOM      1  CA  ASP A   2      -6.455  -4.261  -1.363  0.00  0.00    +0.160 C 
ENDROOT
BRANCH   1   4
ATOM      2  C   GLY A   1      -5.635  -6.439  -2.073  0.00  0.00    +0.240 C 
ATOM      3  O   GLY A   1      -6.204  -7.021  -1.148  0.00  0.00    -0.274 OA
ATOM      4  N   ASP A   2      -5.673  -5.123  -2.234  0.00  0.00    -0.297 N 
ATOM      5  H   ASP A   2      -5.126  -4.694  -3.008  0.00  0.00    +0.150 HD
BRANCH   2   6
ATOM      6  CA  GLY A   1      -4.828  -7.200  -3.104  0.00  0.00    +0.169 C 
BRANCH   6   7
ATOM      7  N   GLY A   1      -4.650  -8.601  -2.779  0.00  0.00    -0.236 NA
ATOM      8  H   GLY A   1      -4.913  -8.943  -1.833  0.00  0.00    +0.142 HD
ENDBRANCH   6   7
ENDBRANCH   2   6
ENDBRANCH   1   4
BRANCH   1   9
ATOM      9  C   ASP A   2      -7.706  -3.792  -2.099  0.00  0.00    +0.241 C 
ATOM     10  N   VAL A   3      -8.870  -4.108  -1.544  0.00  0.00    -0.298 N 
ATOM     11  H   VAL A   3      -8.879  -4.606  -0.631  0.00  0.00    +0.150 HD
ATOM     12  O   ASP A   2      -7.617  -3.161  -3.152  0.00  0.00    -0.273 OA
BRANCH  10  13
ATOM     13  CA  VAL A   3     -10.135  -3.773  -2.184  0.00  0.00    +0.137 C 
BRANCH  13  14
ATOM     14  CB  VAL A   3     -11.177  -4.898  -1.984  0.00  0.00    +0.026 C 
ATOM     15  CG2 VAL A   3     -12.544  -4.474  -2.508  0.00  0.00    +0.002 C 
ATOM     16  CG1 VAL A   3     -10.714  -6.177  -2.663  0.00  0.00    +0.002 C 
ENDBRANCH  13  14
BRANCH  13  17
ATOM     17  C   VAL A   3     -10.708  -2.458  -1.665  0.00  0.00    +0.227 C 
ATOM     18  O   VAL A   3     -10.756  -2.221  -0.458  0.00  0.00    -0.286 OA
ENDBRANCH  13  17
ENDBRANCH  10  13
ENDBRANCH   1   9
BRANCH   1  19
ATOM     19  CB  ASP A   2      -5.615  -3.065  -0.915  0.00  0.00    +0.143 C 
BRANCH  19  20
ATOM     20  CG  ASP A   2      -4.316  -3.484  -0.250  0.00  0.00    +0.367 C 
ATOM     21  OD2 ASP A   2      -4.326  -4.481   0.503  0.00  0.00    -0.246 OA
ATOM     22  OD1 ASP A   2      -3.283  -2.821  -0.485  0.00  0.00    -0.246 OA
ENDBRANCH  19  20
ENDBRANCH   1  19
TORSDOF 9
REMARK  Name = ../refined-set-2016/4xtv/4xtv_pocket.pdb
REMARK  235 active torsions:
REMARK  status: ('A' for Active; 'I' for Inactive)
REMARK    1  A    between atoms: _1  and  _3
REMARK    2  A    between atoms: _3  and  _4
REMARK    3  A    between atoms: _3  and  _6
REMARK    4  A    between atoms: _6  and  _7
REMARK    5  A    between atoms: _10  and  _12
REMARK    6  A    between atoms: _12  and  _13
REMARK    7  A    between atoms: _15  and  _17
REMARK    8  A    between atoms: _17  and  _18
REMARK    9  A    between atoms: _17  and  _20
REMARK   10  A    between atoms: _20  and  _21
REMARK   11  A    between atoms: _23  and  _25
REMARK   12  A    between atoms: _25  and  _26
REMARK   13  A    between atoms: _25  and  _28
REMARK   14  A    between atoms: _28  and  _29
REMARK   15  A    between atoms: _32  and  _34
REMARK   16  A    between atoms: _34  and  _35
REMARK   17  A    between atoms: _34  and  _37
REMARK   18  A    between atoms: _37  and  _38
REMARK   19  A    between atoms: _43  and  _45
REMARK   20  A    between atoms: _45  and  _46
REMARK   21  A    between atoms: _49  and  _51
REMARK   22  A    between atoms: _51  and  _52
REMARK   23  A    between atoms: _51  and  _54
REMARK   24  A    between atoms: _54  and  _55
REMARK   25  A    between atoms: _58  and  _60
REMARK   26  A    between atoms: _60  and  _61
REMARK   27  A    between atoms: _60  and  _63
REMARK   28  A    between atoms: _63  and  _64
REMARK   29  A    between atoms: _67  and  _69
REMARK   30  A    between atoms: _69  and  _70
REMARK   31  A    between atoms: _69  and  _72
REMARK   32  A    between atoms: _72  and  _73
REMARK   33  A    between atoms: _76  and  _78
REMARK   34  A    between atoms: _78  and  _79
REMARK   35  A    between atoms: _82  and  _84
REMARK   36  A    between atoms: _84  and  _85
REMARK   37  A    between atoms: _84  and  _87
REMARK   38  A    between atoms: _87  and  _88
REMARK   39  A    between atoms: _88  and  _89
REMARK   40  A    between atoms: _94  and  _96
REMARK   41  A    between atoms: _96  and  _97
REMARK   42  A    between atoms: _96  and  _99
REMARK   43  A    between atoms: _99  and  _100
REMARK   44  A    between atoms: _103  and  _105
REMARK   45  A    between atoms: _105  and  _106
REMARK   46  A    between atoms: _109  and  _111
REMARK   47  A    between atoms: _111  and  _112
REMARK   48  A    between atoms: _114  and  _116
REMARK   49  A    between atoms: _116  and  _117
REMARK   50  A    between atoms: _116  and  _119
REMARK   51  A    between atoms: _119  and  _120
REMARK   52  A    between atoms: _120  and  _121
REMARK   53  A    between atoms: _121  and  _122
REMARK   54  A    between atoms: _131  and  _133
REMARK   55  A    between atoms: _133  and  _134
REMARK   56  A    between atoms: _136  and  _138
REMARK   57  A    between atoms: _138  and  _139
REMARK   58  A    between atoms: _138  and  _141
REMARK   59  A    between atoms: _141  and  _142
REMARK   60  A    between atoms: _142  and  _143
REMARK   61  A    between atoms: _143  and  _144
REMARK   62  A    between atoms: _153  and  _155
REMARK   63  A    between atoms: _155  and  _156
REMARK   64  A    between atoms: _155  and  _158
REMARK   65  A    between atoms: _158  and  _159
REMARK   66  A    between atoms: _164  and  _166
REMARK   67  A    between atoms: _166  and  _167
REMARK   68  A    between atoms: _169  and  _171
REMARK   69  A    between atoms: _171  and  _172
REMARK   70  A    between atoms: _171  and  _174
REMARK   71  A    between atoms: _174  and  _175
REMARK   72  A    between atoms: _175  and  _176
REMARK   73  A    between atoms: _176  and  _177
REMARK   74  A    between atoms: _186  and  _188
REMARK   75  A    between atoms: _188  and  _189
REMARK   76  A    between atoms: _191  and  _193
REMARK   77  A    between atoms: _193  and  _194
REMARK   78  A    between atoms: _193  and  _196
REMARK   79  A    between atoms: _196  and  _197
REMARK   80  A    between atoms: _207  and  _209
REMARK   81  A    between atoms: _209  and  _210
REMARK   82  A    between atoms: _213  and  _215
REMARK   83  A    between atoms: _215  and  _216
REMARK   84  A    between atoms: _219  and  _221
REMARK   85  A    between atoms: _221  and  _222
REMARK   86  A    between atoms: _221  and  _224
REMARK   87  A    between atoms: _224  and  _225
REMARK   88  A    between atoms: _228  and  _230
REMARK   89  A    between atoms: _230  and  _231
REMARK   90  A    between atoms: _230  and  _233
REMARK   91  A    between atoms: _233  and  _234
REMARK   92  A    between atoms: _234  and  _235
REMARK   93  A    between atoms: _240  and  _242
REMARK   94  A    between atoms: _242  and  _243
REMARK   95  A    between atoms: _242  and  _245
REMARK   96  A    between atoms: _245  and  _246
REMARK   97  A    between atoms: _249  and  _251
REMARK   98  A    between atoms: _251  and  _252
REMARK   99  A    between atoms: _251  and  _254
REMARK  100  A    between atoms: _254  and  _255
REMARK  101  A    between atoms: _258  and  _260
REMARK  102  A    between atoms: _260  and  _261
REMARK  103  A    between atoms: _260  and  _263
REMARK  104  A    between atoms: _263  and  _264
REMARK  105  A    between atoms: _267  and  _269
REMARK  106  A    between atoms: _269  and  _270
REMARK  107  A    between atoms: _269  and  _272
REMARK  108  A    between atoms: _272  and  _273
REMARK  109  A    between atoms: _275  and  _277
REMARK  110  A    between atoms: _277  and  _278
REMARK  111  A    between atoms: _277  and  _280
REMARK  112  A    between atoms: _283  and  _285
REMARK  113  A    between atoms: _285  and  _286
REMARK  114  A    between atoms: _285  and  _288
REMARK  115  A    between atoms: _288  and  _289
REMARK  116  A    between atoms: _289  and  _290
REMARK  117  A    between atoms: _290  and  _291
REMARK  118  A    between atoms: _291  and  _292
REMARK  119  A    between atoms: _296  and  _298
REMARK  120  A    between atoms: _298  and  _299
REMARK  121  A    between atoms: _298  and  _301
REMARK  122  A    between atoms: _301  and  _302
REMARK  123  A    between atoms: _313  and  _314
REMARK  124  A    between atoms: _319  and  _321
REMARK  125  A    between atoms: _321  and  _322
REMARK  126  A    between atoms: _321  and  _324
REMARK  127  A    between atoms: _324  and  _325
REMARK  128  A    between atoms: _330  and  _332
REMARK  129  A    between atoms: _332  and  _333
REMARK  130  A    between atoms: _332  and  _335
REMARK  131  A    between atoms: _335  and  _336
REMARK  132  A    between atoms: _339  and  _341
REMARK  133  A    between atoms: _341  and  _342
REMARK  134  A    between atoms: _341  and  _344
REMARK  135  A    between atoms: _347  and  _349
REMARK  136  A    between atoms: _349  and  _350
REMARK  137  A    between atoms: _352  and  _354
REMARK  138  A    between atoms: _354  and  _355
REMARK  139  A    between atoms: _354  and  _357
REMARK  140  A    between atoms: _357  and  _358
REMARK  141  A    between atoms: _358  and  _359
REMARK  142  A    between atoms: _359  and  _360
REMARK  143  A    between atoms: _360  and  _361
REMARK  144  A    between atoms: _365  and  _367
REMARK  145  A    between atoms: _367  and  _368
REMARK  146  A    between atoms: _367  and  _370
REMARK  147  A    between atoms: _370  and  _371
REMARK  148  A    between atoms: _374  and  _376
REMARK  149  A    between atoms: _376  and  _377
REMARK  150  A    between atoms: _380  and  _382
REMARK  151  A    between atoms: _382  and  _383
REMARK  152  A    between atoms: _385  and  _387
REMARK  153  A    between atoms: _387  and  _388
REMARK  154  A    between atoms: _387  and  _390
REMARK  155  A    between atoms: _390  and  _391
REMARK  156  A    between atoms: _394  and  _396
REMARK  157  A    between atoms: _396  and  _397
REMARK  158  A    between atoms: _396  and  _399
REMARK  159  A    between atoms: _399  and  _400
REMARK  160  A    between atoms: _403  and  _405
REMARK  161  A    between atoms: _405  and  _406
REMARK  162  A    between atoms: _409  and  _411
REMARK  163  A    between atoms: _411  and  _412
REMARK  164  A    between atoms: _411  and  _414
REMARK  165  A    between atoms: _414  and  _415
REMARK  166  A    between atoms: _415  and  _416
REMARK  167  A    between atoms: _419  and  _421
REMARK  168  A    between atoms: _421  and  _422
REMARK  169  A    between atoms: _421  and  _424
REMARK  170  A    between atoms: _427  and  _429
REMARK  171  A    between atoms: _429  and  _430
REMARK  172  A    between atoms: _429  and  _432
REMARK  173  A    between atoms: _432  and  _433
REMARK  174  A    between atoms: _436  and  _438
REMARK  175  A    between atoms: _438  and  _439
REMARK  176  A    between atoms: _441  and  _443
REMARK  177  A    between atoms: _443  and  _444
REMARK  178  A    between atoms: _443  and  _446
REMARK  179  A    between atoms: _449  and  _451
REMARK  180  A    between atoms: _451  and  _452
REMARK  181  A    between atoms: _454  and  _456
REMARK  182  A    between atoms: _456  and  _457
REMARK  183  A    between atoms: _456  and  _459
REMARK  184  A    between atoms: _459  and  _460
REMARK  185  A    between atoms: _463  and  _465
REMARK  186  A    between atoms: _465  and  _466
REMARK  187  A    between atoms: _465  and  _468
REMARK  188  A    between atoms: _468  and  _469
REMARK  189  A    between atoms: _474  and  _476
REMARK  190  A    between atoms: _476  and  _477
REMARK  191  A    between atoms: _476  and  _479
REMARK  192  A    between atoms: _482  and  _484
REMARK  193  A    between atoms: _484  and  _485
REMARK  194  A    between atoms: _484  and  _487
REMARK  195  A    between atoms: _487  and  _488
REMARK  196  A    between atoms: _488  and  _489
REMARK  197  A    between atoms: _494  and  _496
REMARK  198  A    between atoms: _496  and  _497
REMARK  199  A    between atoms: _501  and  _502
REMARK  200  A    between atoms: _507  and  _509
REMARK  201  A    between atoms: _509  and  _510
REMARK  202  A    between atoms: _509  and  _512
REMARK  203  A    between atoms: _512  and  _513
REMARK  204  A    between atoms: _513  and  _514
REMARK  205  A    between atoms: _517  and  _519
REMARK  206  A    between atoms: _519  and  _520
REMARK  207  A    between atoms: _519  and  _522
REMARK  208  A    between atoms: _525  and  _527
REMARK  209  A    between atoms: _527  and  _528
REMARK  210  A    between atoms: _527  and  _530
REMARK  211  A    between atoms: _530  and  _531
REMARK  212  A    between atoms: _535  and  _536
REMARK  213  A    between atoms: _541  and  _543
REMARK  214  A    between atoms: _543  and  _544
REMARK  215  A    between atoms: _543  and  _546
REMARK  216  A    between atoms: _546  and  _547
REMARK  217  A    between atoms: _550  and  _552
REMARK  218  A    between atoms: _552  and  _553
REMARK  219  A    between atoms: _556  and  _558
REMARK  220  A    between atoms: _558  and  _559
REMARK  221  A    between atoms: _558  and  _561
REMARK  222  A    between atoms: _561  and  _562
REMARK  223  A    between atoms: _565  and  _567
REMARK  224  A    between atoms: _567  and  _568
REMARK  225  A    between atoms: _567  and  _570
REMARK  226  A    between atoms: _570  and  _571
REMARK  227  A    between atoms: _573  and  _575
REMARK  228  A    between atoms: _575  and  _576
REMARK  229  A    between atoms: _578  and  _580
REMARK  230  A    between atoms: _580  and  _581
REMARK  231  A    between atoms: _580  and  _583
REMARK  232  A    between atoms: _583  and  _584
REMARK  233  A    between atoms: _587  and  _589
REMARK  234  A    between atoms: _589  and  _590
REMARK  235  A    between atoms: _589  and  _592
REMARK                            x       y       z     vdW  Elec       q    Type
REMARK                         _______ _______ _______ _____ _____    ______ ____
ROOT
ATOM      1  O   HOH     1      -5.261 -12.613   5.891  0.00  0.00    +0.000 OA
ENDROOT
TORSDOF 0
REMARK  Name = ../refined-set-2016/4xtv/4xtv_pocket.pdb
REMARK  235 active torsions:
REMARK  status: ('A' for Active; 'I' for Inactive)
REMARK    1  A    between atoms: _1  and  _3
REMARK    2  A    between atoms: _3  and  _4
REMARK    3  A    between atoms: _3  and  _6
REMARK    4  A    between atoms: _6  and  _7
REMARK    5  A    between atoms: _10  and  _12
REMARK    6  A    between atoms: _12  and  _13
REMARK    7  A    between atoms: _15  and  _17
REMARK    8  A    between atoms: _17  and  _18
REMARK    9  A    between atoms: _17  and  _20
REMARK   10  A    between atoms: _20  and  _21
REMARK   11  A    between atoms: _23  and  _25
REMARK   12  A    between atoms: _25  and  _26
REMARK   13  A    between atoms: _25  and  _28
REMARK   14  A    between atoms: _28  and  _29
REMARK   15  A    between atoms: _32  and  _34
REMARK   16  A    between atoms: _34  and  _35
REMARK   17  A    between atoms: _34  and  _37
REMARK   18  A    between atoms: _37  and  _38
REMARK   19  A    between atoms: _43  and  _45
REMARK   20  A    between atoms: _45  and  _46
REMARK   21  A    between atoms: _49  and  _51
REMARK   22  A    between atoms: _51  and  _52
REMARK   23  A    between atoms: _51  and  _54
REMARK   24  A    between atoms: _54  and  _55
REMARK   25  A    between atoms: _58  and  _60
REMARK   26  A    between atoms: _60  and  _61
REMARK   27  A    between atoms: _60  and  _63
REMARK   28  A    between atoms: _63  and  _64
REMARK   29  A    between atoms: _67  and  _69
REMARK   30  A    between atoms: _69  and  _70
REMARK   31  A    between atoms: _69  and  _72
REMARK   32  A    between atoms: _72  and  _73
REMARK   33  A    between atoms: _76  and  _78
REMARK   34  A    between atoms: _78  and  _79
REMARK   35  A    between atoms: _82  and  _84
REMARK   36  A    between atoms: _84  and  _85
REMARK   37  A    between atoms: _84  and  _87
REMARK   38  A    between atoms: _87  and  _88
REMARK   39  A    between atoms: _88  and  _89
REMARK   40  A    between atoms: _94  and  _96
REMARK   41  A    between atoms: _96  and  _97
REMARK   42  A    between atoms: _96  and  _99
REMARK   43  A    between atoms: _99  and  _100
REMARK   44  A    between atoms: _103  and  _105
REMARK   45  A    between atoms: _105  and  _106
REMARK   46  A    between atoms: _109  and  _111
REMARK   47  A    between atoms: _111  and  _112
REMARK   48  A    between atoms: _114  and  _116
REMARK   49  A    between atoms: _116  and  _117
REMARK   50  A    between atoms: _116  and  _119
REMARK   51  A    between atoms: _119  and  _120
REMARK   52  A    between atoms: _120  and  _121
REMARK   53  A    between atoms: _121  and  _122
REMARK   54  A    between atoms: _131  and  _133
REMARK   55  A    between atoms: _133  and  _134
REMARK   56  A    between atoms: _136  and  _138
REMARK   57  A    between atoms: _138  and  _139
REMARK   58  A    between atoms: _138  and  _141
REMARK   59  A    between atoms: _141  and  _142
REMARK   60  A    between atoms: _142  and  _143
REMARK   61  A    between atoms: _143  and  _144
REMARK   62  A    between atoms: _153  and  _155
REMARK   63  A    between atoms: _155  and  _156
REMARK   64  A    between atoms: _155  and  _158
REMARK   65  A    between atoms: _158  and  _159
REMARK   66  A    between atoms: _164  and  _166
REMARK   67  A    between atoms: _166  and  _167
REMARK   68  A    between atoms: _169  and  _171
REMARK   69  A    between atoms: _171  and  _172
REMARK   70  A    between atoms: _171  and  _174
REMARK   71  A    between atoms: _174  and  _175
REMARK   72  A    between atoms: _175  and  _176
REMARK   73  A    between atoms: _176  and  _177
REMARK   74  A    between atoms: _186  and  _188
REMARK   75  A    between atoms: _188  and  _189
REMARK   76  A    between atoms: _191  and  _193
REMARK   77  A    between atoms: _193  and  _194
REMARK   78  A    between atoms: _193  and  _196
REMARK   79  A    between atoms: _196  and  _197
REMARK   80  A    between atoms: _207  and  _209
REMARK   81  A    between atoms: _209  and  _210
REMARK   82  A    between atoms: _213  and  _215
REMARK   83  A    between atoms: _215  and  _216
REMARK   84  A    between atoms: _219  and  _221
REMARK   85  A    between atoms: _221  and  _222
REMARK   86  A    between atoms: _221  and  _224
REMARK   87  A    between atoms: _224  and  _225
REMARK   88  A    between atoms: _228  and  _230
REMARK   89  A    between atoms: _230  and  _231
REMARK   90  A    between atoms: _230  and  _233
REMARK   91  A    between atoms: _233  and  _234
REMARK   92  A    between atoms: _234  and  _235
REMARK   93  A    between atoms: _240  and  _242
REMARK   94  A    between atoms: _242  and  _243
REMARK   95  A    between atoms: _242  and  _245
REMARK   96  A    between atoms: _245  and  _246
REMARK   97  A    between atoms: _249  and  _251
REMARK   98  A    between atoms: _251  and  _252
REMARK   99  A    between atoms: _251  and  _254
REMARK  100  A    between atoms: _254  and  _255
REMARK  101  A    between atoms: _258  and  _260
REMARK  102  A    between atoms: _260  and  _261
REMARK  103  A    between atoms: _260  and  _263
REMARK  104  A    between atoms: _263  and  _264
REMARK  105  A    between atoms: _267  and  _269
REMARK  106  A    between atoms: _269  and  _270
REMARK  107  A    between atoms: _269  and  _272
REMARK  108  A    between atoms: _272  and  _273
REMARK  109  A    between atoms: _275  and  _277
REMARK  110  A    between atoms: _277  and  _278
REMARK  111  A    between atoms: _277  and  _280
REMARK  112  A    between atoms: _283  and  _285
REMARK  113  A    between atoms: _285  and  _286
REMARK  114  A    between atoms: _285  and  _288
REMARK  115  A    between atoms: _288  and  _289
REMARK  116  A    between atoms: _289  and  _290
REMARK  117  A    between atoms: _290  and  _291
REMARK  118  A    between atoms: _291  and  _292
REMARK  119  A    between atoms: _296  and  _298
REMARK  120  A    between atoms: _298  and  _299
REMARK  121  A    between atoms: _298  and  _301
REMARK  122  A    between atoms: _301  and  _302
REMARK  123  A    between atoms: _313  and  _314
REMARK  124  A    between atoms: _319  and  _321
REMARK  125  A    between atoms: _321  and  _322
REMARK  126  A    between atoms: _321  and  _324
REMARK  127  A    between atoms: _324  and  _325
REMARK  128  A    between atoms: _330  and  _332
REMARK  129  A    between atoms: _332  and  _333
REMARK  130  A    between atoms: _332  and  _335
REMARK  131  A    between atoms: _335  and  _336
REMARK  132  A    between atoms: _339  and  _341
REMARK  133  A    between atoms: _341  and  _342
REMARK  134  A    between atoms: _341  and  _344
REMARK  135  A    between atoms: _347  and  _349
REMARK  136  A    between atoms: _349  and  _350
REMARK  137  A    between atoms: _352  and  _354
REMARK  138  A    between atoms: _354  and  _355
REMARK  139  A    between atoms: _354  and  _357
REMARK  140  A    between atoms: _357  and  _358
REMARK  141  A    between atoms: _358  and  _359
REMARK  142  A    between atoms: _359  and  _360
REMARK  143  A    between atoms: _360  and  _361
REMARK  144  A    between atoms: _365  and  _367
REMARK  145  A    between atoms: _367  and  _368
REMARK  146  A    between atoms: _367  and  _370
REMARK  147  A    between atoms: _370  and  _371
REMARK  148  A    between atoms: _374  and  _376
REMARK  149  A    between atoms: _376  and  _377
REMARK  150  A    between atoms: _380  and  _382
REMARK  151  A    between atoms: _382  and  _383
REMARK  152  A    between atoms: _385  and  _387
REMARK  153  A    between atoms: _387  and  _388
REMARK  154  A    between atoms: _387  and  _390
REMARK  155  A    between atoms: _390  and  _391
REMARK  156  A    between atoms: _394  and  _396
REMARK  157  A    between atoms: _396  and  _397
REMARK  158  A    between atoms: _396  and  _399
REMARK  159  A    between atoms: _399  and  _400
REMARK  160  A    between atoms: _403  and  _405
REMARK  161  A    between atoms: _405  and  _406
REMARK  162  A    between atoms: _409  and  _411
REMARK  163  A    between atoms: _411  and  _412
REMARK  164  A    between atoms: _411  and  _414
REMARK  165  A    between atoms: _414  and  _415
REMARK  166  A    between atoms: _415  and  _416
REMARK  167  A    between atoms: _419  and  _421
REMARK  168  A    between atoms: _421  and  _422
REMARK  169  A    between atoms: _421  and  _424
REMARK  170  A    between atoms: _427  and  _429
REMARK  171  A    between atoms: _429  and  _430
REMARK  172  A    between atoms: _429  and  _432
REMARK  173  A    between atoms: _432  and  _433
REMARK  174  A    between atoms: _436  and  _438
REMARK  175  A    between atoms: _438  and  _439
REMARK  176  A    between atoms: _441  and  _443
REMARK  177  A    between atoms: _443  and  _444
REMARK  178  A    between atoms: _443  and  _446
REMARK  179  A    between atoms: _449  and  _451
REMARK  180  A    between atoms: _451  and  _452
REMARK  181  A    between atoms: _454  and  _456
REMARK  182  A    between atoms: _456  and  _457
REMARK  183  A    between atoms: _456  and  _459
REMARK  184  A    between atoms: _459  and  _460
REMARK  185  A    between atoms: _463  and  _465
REMARK  186  A    between atoms: _465  and  _466
REMARK  187  A    between atoms: _465  and  _468
REMARK  188  A    between atoms: _468  and  _469
REMARK  189  A    between atoms: _474  and  _476
REMARK  190  A    between atoms: _476  and  _477
REMARK  191  A    between atoms: _476  and  _479
REMARK  192  A    between atoms: _482  and  _484
REMARK  193  A    between atoms: _484  and  _485
REMARK  194  A    between atoms: _484  and  _487
REMARK  195  A    between atoms: _487  and  _488
REMARK  196  A    between atoms: _488  and  _489
REMARK  197  A    between atoms: _494  and  _496
REMARK  198  A    between atoms: _496  and  _497
REMARK  199  A    between atoms: _501  and  _502
REMARK  200  A    between atoms: _507  and  _509
REMARK  201  A    between atoms: _509  and  _510
REMARK  202  A    between atoms: _509  and  _512
REMARK  203  A    between atoms: _512  and  _513
REMARK  204  A    between atoms: _513  and  _514
REMARK  205  A    between atoms: _517  and  _519
REMARK  206  A    between atoms: _519  and  _520
REMARK  207  A    between atoms: _519  and  _522
REMARK  208  A    between atoms: _525  and  _527
REMARK  209  A    between atoms: _527  and  _528
REMARK  210  A    between atoms: _527  and  _530
REMARK  211  A    between atoms: _530  and  _531
REMARK  212  A    between atoms: _535  and  _536
REMARK  213  A    between atoms: _541  and  _543
REMARK  214  A    between atoms: _543  and  _544
REMARK  215  A    between atoms: _543  and  _546
REMARK  216  A    between atoms: _546  and  _547
REMARK  217  A    between atoms: _550  and  _552
REMARK  218  A    between atoms: _552  and  _553
REMARK  219  A    between atoms: _556  and  _558
REMARK  220  A    between atoms: _558  and  _559
REMARK  221  A    between atoms: _558  and  _561
REMARK  222  A    between atoms: _561  and  _562
REMARK  223  A    between atoms: _565  and  _567
REMARK  224  A    between atoms: _567  and  _568
REMARK  225  A    between atoms: _567  and  _570
REMARK  226  A    between atoms: _570  and  _571
REMARK  227  A    between atoms: _573  and  _575
REMARK  228  A    between atoms: _575  and  _576
REMARK  229  A    between atoms: _578  and  _580
REMARK  230  A    between atoms: _580  and  _581
REMARK  231  A    between atoms: _580  and  _583
REMARK  232  A    between atoms: _583  and  _584
REMARK  233  A    between atoms: _587  and  _589
REMARK  234  A    between atoms: _589  and  _590
REMARK  235  A    between atoms: _589  and  _592
REMARK                            x       y       z     vdW  Elec       q    Type
REMARK                         _______ _______ _______ _____ _____    ______ ____
ROOT
ATOM      1  O   HOH     1     -10.069  -1.883   4.716  0.00  0.00    +0.000 OA
ENDROOT
TORSDOF 0
REMARK  Name = ../refined-set-2016/4xtv/4xtv_pocket.pdb
REMARK  235 active torsions:
REMARK  status: ('A' for Active; 'I' for Inactive)
REMARK    1  A    between atoms: _1  and  _3
REMARK    2  A    between atoms: _3  and  _4
REMARK    3  A    between atoms: _3  and  _6
REMARK    4  A    between atoms: _6  and  _7
REMARK    5  A    between atoms: _10  and  _12
REMARK    6  A    between atoms: _12  and  _13
REMARK    7  A    between atoms: _15  and  _17
REMARK    8  A    between atoms: _17  and  _18
REMARK    9  A    between atoms: _17  and  _20
REMARK   10  A    between atoms: _20  and  _21
REMARK   11  A    between atoms: _23  and  _25
REMARK   12  A    between atoms: _25  and  _26
REMARK   13  A    between atoms: _25  and  _28
REMARK   14  A    between atoms: _28  and  _29
REMARK   15  A    between atoms: _32  and  _34
REMARK   16  A    between atoms: _34  and  _35
REMARK   17  A    between atoms: _34  and  _37
REMARK   18  A    between atoms: _37  and  _38
REMARK   19  A    between atoms: _43  and  _45
REMARK   20  A    between atoms: _45  and  _46
REMARK   21  A    between atoms: _49  and  _51
REMARK   22  A    between atoms: _51  and  _52
REMARK   23  A    between atoms: _51  and  _54
REMARK   24  A    between atoms: _54  and  _55
REMARK   25  A    between atoms: _58  and  _60
REMARK   26  A    between atoms: _60  and  _61
REMARK   27  A    between atoms: _60  and  _63
REMARK   28  A    between atoms: _63  and  _64
REMARK   29  A    between atoms: _67  and  _69
REMARK   30  A    between atoms: _69  and  _70
REMARK   31  A    between atoms: _69  and  _72
REMARK   32  A    between atoms: _72  and  _73
REMARK   33  A    between atoms: _76  and  _78
REMARK   34  A    between atoms: _78  and  _79
REMARK   35  A    between atoms: _82  and  _84
REMARK   36  A    between atoms: _84  and  _85
REMARK   37  A    between atoms: _84  and  _87
REMARK   38  A    between atoms: _87  and  _88
REMARK   39  A    between atoms: _88  and  _89
REMARK   40  A    between atoms: _94  and  _96
REMARK   41  A    between atoms: _96  and  _97
REMARK   42  A    between atoms: _96  and  _99
REMARK   43  A    between atoms: _99  and  _100
REMARK   44  A    between atoms: _103  and  _105
REMARK   45  A    between atoms: _105  and  _106
REMARK   46  A    between atoms: _109  and  _111
REMARK   47  A    between atoms: _111  and  _112
REMARK   48  A    between atoms: _114  and  _116
REMARK   49  A    between atoms: _116  and  _117
REMARK   50  A    between atoms: _116  and  _119
REMARK   51  A    between atoms: _119  and  _120
REMARK   52  A    between atoms: _120  and  _121
REMARK   53  A    between atoms: _121  and  _122
REMARK   54  A    between atoms: _131  and  _133
REMARK   55  A    between atoms: _133  and  _134
REMARK   56  A    between atoms: _136  and  _138
REMARK   57  A    between atoms: _138  and  _139
REMARK   58  A    between atoms: _138  and  _141
REMARK   59  A    between atoms: _141  and  _142
REMARK   60  A    between atoms: _142  and  _143
REMARK   61  A    between atoms: _143  and  _144
REMARK   62  A    between atoms: _153  and  _155
REMARK   63  A    between atoms: _155  and  _156
REMARK   64  A    between atoms: _155  and  _158
REMARK   65  A    between atoms: _158  and  _159
REMARK   66  A    between atoms: _164  and  _166
REMARK   67  A    between atoms: _166  and  _167
REMARK   68  A    between atoms: _169  and  _171
REMARK   69  A    between atoms: _171  and  _172
REMARK   70  A    between atoms: _171  and  _174
REMARK   71  A    between atoms: _174  and  _175
REMARK   72  A    between atoms: _175  and  _176
REMARK   73  A    between atoms: _176  and  _177
REMARK   74  A    between atoms: _186  and  _188
REMARK   75  A    between atoms: _188  and  _189
REMARK   76  A    between atoms: _191  and  _193
REMARK   77  A    between atoms: _193  and  _194
REMARK   78  A    between atoms: _193  and  _196
REMARK   79  A    between atoms: _196  and  _197
REMARK   80  A    between atoms: _207  and  _209
REMARK   81  A    between atoms: _209  and  _210
REMARK   82  A    between atoms: _213  and  _215
REMARK   83  A    between atoms: _215  and  _216
REMARK   84  A    between atoms: _219  and  _221
REMARK   85  A    between atoms: _221  and  _222
REMARK   86  A    between atoms: _221  and  _224
REMARK   87  A    between atoms: _224  and  _225
REMARK   88  A    between atoms: _228  and  _230
REMARK   89  A    between atoms: _230  and  _231
REMARK   90  A    between atoms: _230  and  _233
REMARK   91  A    between atoms: _233  and  _234
REMARK   92  A    between atoms: _234  and  _235
REMARK   93  A    between atoms: _240  and  _242
REMARK   94  A    between atoms: _242  and  _243
REMARK   95  A    between atoms: _242  and  _245
REMARK   96  A    between atoms: _245  and  _246
REMARK   97  A    between atoms: _249  and  _251
REMARK   98  A    between atoms: _251  and  _252
REMARK   99  A    between atoms: _251  and  _254
REMARK  100  A    between atoms: _254  and  _255
REMARK  101  A    between atoms: _258  and  _260
REMARK  102  A    between atoms: _260  and  _261
REMARK  103  A    between atoms: _260  and  _263
REMARK  104  A    between atoms: _263  and  _264
REMARK  105  A    between atoms: _267  and  _269
REMARK  106  A    between atoms: _269  and  _270
REMARK  107  A    between atoms: _269  and  _272
REMARK  108  A    between atoms: _272  and  _273
REMARK  109  A    between atoms: _275  and  _277
REMARK  110  A    between atoms: _277  and  _278
REMARK  111  A    between atoms: _277  and  _280
REMARK  112  A    between atoms: _283  and  _285
REMARK  113  A    between atoms: _285  and  _286
REMARK  114  A    between atoms: _285  and  _288
REMARK  115  A    between atoms: _288  and  _289
REMARK  116  A    between atoms: _289  and  _290
REMARK  117  A    between atoms: _290  and  _291
REMARK  118  A    between atoms: _291  and  _292
REMARK  119  A    between atoms: _296  and  _298
REMARK  120  A    between atoms: _298  and  _299
REMARK  121  A    between atoms: _298  and  _301
REMARK  122  A    between atoms: _301  and  _302
REMARK  123  A    between atoms: _313  and  _314
REMARK  124  A    between atoms: _319  and  _321
REMARK  125  A    between atoms: _321  and  _322
REMARK  126  A    between atoms: _321  and  _324
REMARK  127  A    between atoms: _324  and  _325
REMARK  128  A    between atoms: _330  and  _332
REMARK  129  A    between atoms: _332  and  _333
REMARK  130  A    between atoms: _332  and  _335
REMARK  131  A    between atoms: _335  and  _336
REMARK  132  A    between atoms: _339  and  _341
REMARK  133  A    between atoms: _341  and  _342
REMARK  134  A    between atoms: _341  and  _344
REMARK  135  A    between atoms: _347  and  _349
REMARK  136  A    between atoms: _349  and  _350
REMARK  137  A    between atoms: _352  and  _354
REMARK  138  A    between atoms: _354  and  _355
REMARK  139  A    between atoms: _354  and  _357
REMARK  140  A    between atoms: _357  and  _358
REMARK  141  A    between atoms: _358  and  _359
REMARK  142  A    between atoms: _359  and  _360
REMARK  143  A    between atoms: _360  and  _361
REMARK  144  A    between atoms: _365  and  _367
REMARK  145  A    between atoms: _367  and  _368
REMARK  146  A    between atoms: _367  and  _370
REMARK  147  A    between atoms: _370  and  _371
REMARK  148  A    between atoms: _374  and  _376
REMARK  149  A    between atoms: _376  and  _377
REMARK  150  A    between atoms: _380  and  _382
REMARK  151  A    between atoms: _382  and  _383
REMARK  152  A    between atoms: _385  and  _387
REMARK  153  A    between atoms: _387  and  _388
REMARK  154  A    between atoms: _387  and  _390
REMARK  155  A    between atoms: _390  and  _391
REMARK  156  A    between atoms: _394  and  _396
REMARK  157  A    between atoms: _396  and  _397
REMARK  158  A    between atoms: _396  and  _399
REMARK  159  A    between atoms: _399  and  _400
REMARK  160  A    between atoms: _403  and  _405
REMARK  161  A    between atoms: _405  and  _406
REMARK  162  A    between atoms: _409  and  _411
REMARK  163  A    between atoms: _411  and  _412
REMARK  164  A    between atoms: _411  and  _414
REMARK  165  A    between atoms: _414  and  _415
REMARK  166  A    between atoms: _415  and  _416
REMARK  167  A    between atoms: _419  and  _421
REMARK  168  A    between atoms: _421  and  _422
REMARK  169  A    between atoms: _421  and  _424
REMARK  170  A    between atoms: _427  and  _429
REMARK  171  A    between atoms: _429  and  _430
REMARK  172  A    between atoms: _429  and  _432
REMARK  173  A    between atoms: _432  and  _433
REMARK  174  A    between atoms: _436  and  _438
REMARK  175  A    between atoms: _438  and  _439
REMARK  176  A    between atoms: _441  and  _443
REMARK  177  A    between atoms: _443  and  _444
REMARK  178  A    between atoms: _443  and  _446
REMARK  179  A    between atoms: _449  and  _451
REMARK  180  A    between atoms: _451  and  _452
REMARK  181  A    between atoms: _454  and  _456
REMARK  182  A    between atoms: _456  and  _457
REMARK  183  A    between atoms: _456  and  _459
REMARK  184  A    between atoms: _459  and  _460
REMARK  185  A    between atoms: _463  and  _465
REMARK  186  A    between atoms: _465  and  _466
REMARK  187  A    between atoms: _465  and  _468
REMARK  188  A    between atoms: _468  and  _469
REMARK  189  A    between atoms: _474  and  _476
REMARK  190  A    between atoms: _476  and  _477
REMARK  191  A    between atoms: _476  and  _479
REMARK  192  A    between atoms: _482  and  _484
REMARK  193  A    between atoms: _484  and  _485
REMARK  194  A    between atoms: _484  and  _487
REMARK  195  A    between atoms: _487  and  _488
REMARK  196  A    between atoms: _488  and  _489
REMARK  197  A    between atoms: _494  and  _496
REMARK  198  A    between atoms: _496  and  _497
REMARK  199  A    between atoms: _501  and  _502
REMARK  200  A    between atoms: _507  and  _509
REMARK  201  A    between atoms: _509  and  _510
REMARK  202  A    between atoms: _509  and  _512
REMARK  203  A    between atoms: _512  and  _513
REMARK  204  A    between atoms: _513  and  _514
REMARK  205  A    between atoms: _517  and  _519
REMARK  206  A    between atoms: _519  and  _520
REMARK  207  A    between atoms: _519  and  _522
REMARK  208  A    between atoms: _525  and  _527
REMARK  209  A    between atoms: _527  and  _528
REMARK  210  A    between atoms: _527  and  _530
REMARK  211  A    between atoms: _530  and  _531
REMARK  212  A    between atoms: _535  and  _536
REMARK  213  A    between atoms: _541  and  _543
REMARK  214  A    between atoms: _543  and  _544
REMARK  215  A    between atoms: _543  and  _546
REMARK  216  A    between atoms: _546  and  _547
REMARK  217  A    between atoms: _550  and  _552
REMARK  218  A    between atoms: _552  and  _553
REMARK  219  A    between atoms: _556  and  _558
REMARK  220  A    between atoms: _558  and  _559
REMARK  221  A    between atoms: _558  and  _561
REMARK  222  A    between atoms: _561  and  _562
REMARK  223  A    between atoms: _565  and  _567
REMARK  224  A    between atoms: _567  and  _568
REMARK  225  A    between atoms: _567  and  _570
REMARK  226  A    between atoms: _570  and  _571
REMARK  227  A    between atoms: _573  and  _575
REMARK  228  A    between atoms: _575  and  _576
REMARK  229  A    between atoms: _578  and  _580
REMARK  230  A    between atoms: _580  and  _581
REMARK  231  A    between atoms: _580  and  _583
REMARK  232  A    between atoms: _583  and  _584
REMARK  233  A    between atoms: _587  and  _589
REMARK  234  A    between atoms: _589  and  _590
REMARK  235  A    between atoms: _589  and  _592
REMARK                            x       y       z     vdW  Elec       q    Type
REMARK                         _______ _______ _______ _____ _____    ______ ____
ROOT
ATOM      1  O   HOH     1      -6.775   4.956   6.527  0.00  0.00    +0.000 OA
ENDROOT
TORSDOF 0
REMARK  Name = ../refined-set-2016/4xtv/4xtv_pocket.pdb
REMARK  235 active torsions:
REMARK  status: ('A' for Active; 'I' for Inactive)
REMARK    1  A    between atoms: _1  and  _3
REMARK    2  A    between atoms: _3  and  _4
REMARK    3  A    between atoms: _3  and  _6
REMARK    4  A    between atoms: _6  and  _7
REMARK    5  A    between atoms: _10  and  _12
REMARK    6  A    between atoms: _12  and  _13
REMARK    7  A    between atoms: _15  and  _17
REMARK    8  A    between atoms: _17  and  _18
REMARK    9  A    between atoms: _17  and  _20
REMARK   10  A    between atoms: _20  and  _21
REMARK   11  A    between atoms: _23  and  _25
REMARK   12  A    between atoms: _25  and  _26
REMARK   13  A    between atoms: _25  and  _28
REMARK   14  A    between atoms: _28  and  _29
REMARK   15  A    between atoms: _32  and  _34
REMARK   16  A    between atoms: _34  and  _35
REMARK   17  A    between atoms: _34  and  _37
REMARK   18  A    between atoms: _37  and  _38
REMARK   19  A    between atoms: _43  and  _45
REMARK   20  A    between atoms: _45  and  _46
REMARK   21  A    between atoms: _49  and  _51
REMARK   22  A    between atoms: _51  and  _52
REMARK   23  A    between atoms: _51  and  _54
REMARK   24  A    between atoms: _54  and  _55
REMARK   25  A    between atoms: _58  and  _60
REMARK   26  A    between atoms: _60  and  _61
REMARK   27  A    between atoms: _60  and  _63
REMARK   28  A    between atoms: _63  and  _64
REMARK   29  A    between atoms: _67  and  _69
REMARK   30  A    between atoms: _69  and  _70
REMARK   31  A    between atoms: _69  and  _72
REMARK   32  A    between atoms: _72  and  _73
REMARK   33  A    between atoms: _76  and  _78
REMARK   34  A    between atoms: _78  and  _79
REMARK   35  A    between atoms: _82  and  _84
REMARK   36  A    between atoms: _84  and  _85
REMARK   37  A    between atoms: _84  and  _87
REMARK   38  A    between atoms: _87  and  _88
REMARK   39  A    between atoms: _88  and  _89
REMARK   40  A    between atoms: _94  and  _96
REMARK   41  A    between atoms: _96  and  _97
REMARK   42  A    between atoms: _96  and  _99
REMARK   43  A    between atoms: _99  and  _100
REMARK   44  A    between atoms: _103  and  _105
REMARK   45  A    between atoms: _105  and  _106
REMARK   46  A    between atoms: _109  and  _111
REMARK   47  A    between atoms: _111  and  _112
REMARK   48  A    between atoms: _114  and  _116
REMARK   49  A    between atoms: _116  and  _117
REMARK   50  A    between atoms: _116  and  _119
REMARK   51  A    between atoms: _119  and  _120
REMARK   52  A    between atoms: _120  and  _121
REMARK   53  A    between atoms: _121  and  _122
REMARK   54  A    between atoms: _131  and  _133
REMARK   55  A    between atoms: _133  and  _134
REMARK   56  A    between atoms: _136  and  _138
REMARK   57  A    between atoms: _138  and  _139
REMARK   58  A    between atoms: _138  and  _141
REMARK   59  A    between atoms: _141  and  _142
REMARK   60  A    between atoms: _142  and  _143
REMARK   61  A    between atoms: _143  and  _144
REMARK   62  A    between atoms: _153  and  _155
REMARK   63  A    between atoms: _155  and  _156
REMARK   64  A    between atoms: _155  and  _158
REMARK   65  A    between atoms: _158  and  _159
REMARK   66  A    between atoms: _164  and  _166
REMARK   67  A    between atoms: _166  and  _167
REMARK   68  A    between atoms: _169  and  _171
REMARK   69  A    between atoms: _171  and  _172
REMARK   70  A    between atoms: _171  and  _174
REMARK   71  A    between atoms: _174  and  _175
REMARK   72  A    between atoms: _175  and  _176
REMARK   73  A    between atoms: _176  and  _177
REMARK   74  A    between atoms: _186  and  _188
REMARK   75  A    between atoms: _188  and  _189
REMARK   76  A    between atoms: _191  and  _193
REMARK   77  A    between atoms: _193  and  _194
REMARK   78  A    between atoms: _193  and  _196
REMARK   79  A    between atoms: _196  and  _197
REMARK   80  A    between atoms: _207  and  _209
REMARK   81  A    between atoms: _209  and  _210
REMARK   82  A    between atoms: _213  and  _215
REMARK   83  A    between atoms: _215  and  _216
REMARK   84  A    between atoms: _219  and  _221
REMARK   85  A    between atoms: _221  and  _222
REMARK   86  A    between atoms: _221  and  _224
REMARK   87  A    between atoms: _224  and  _225
REMARK   88  A    between atoms: _228  and  _230
REMARK   89  A    between atoms: _230  and  _231
REMARK   90  A    between atoms: _230  and  _233
REMARK   91  A    between atoms: _233  and  _234
REMARK   92  A    between atoms: _234  and  _235
REMARK   93  A    between atoms: _240  and  _242
REMARK   94  A    between atoms: _242  and  _243
REMARK   95  A    between atoms: _242  and  _245
REMARK   96  A    between atoms: _245  and  _246
REMARK   97  A    between atoms: _249  and  _251
REMARK   98  A    between atoms: _251  and  _252
REMARK   99  A    between atoms: _251  and  _254
REMARK  100  A    between atoms: _254  and  _255
REMARK  101  A    between atoms: _258  and  _260
REMARK  102  A    between atoms: _260  and  _261
REMARK  103  A    between atoms: _260  and  _263
REMARK  104  A    between atoms: _263  and  _264
REMARK  105  A    between atoms: _267  and  _269
REMARK  106  A    between atoms: _269  and  _270
REMARK  107  A    between atoms: _269  and  _272
REMARK  108  A    between atoms: _272  and  _273
REMARK  109  A    between atoms: _275  and  _277
REMARK  110  A    between atoms: _277  and  _278
REMARK  111  A    between atoms: _277  and  _280
REMARK  112  A    between atoms: _283  and  _285
REMARK  113  A    between atoms: _285  and  _286
REMARK  114  A    between atoms: _285  and  _288
REMARK  115  A    between atoms: _288  and  _289
REMARK  116  A    between atoms: _289  and  _290
REMARK  117  A    between atoms: _290  and  _291
REMARK  118  A    between atoms: _291  and  _292
REMARK  119  A    between atoms: _296  and  _298
REMARK  120  A    between atoms: _298  and  _299
REMARK  121  A    between atoms: _298  and  _301
REMARK  122  A    between atoms: _301  and  _302
REMARK  123  A    between atoms: _313  and  _314
REMARK  124  A    between atoms: _319  and  _321
REMARK  125  A    between atoms: _321  and  _322
REMARK  126  A    between atoms: _321  and  _324
REMARK  127  A    between atoms: _324  and  _325
REMARK  128  A    between atoms: _330  and  _332
REMARK  129  A    between atoms: _332  and  _333
REMARK  130  A    between atoms: _332  and  _335
REMARK  131  A    between atoms: _335  and  _336
REMARK  132  A    between atoms: _339  and  _341
REMARK  133  A    between atoms: _341  and  _342
REMARK  134  A    between atoms: _341  and  _344
REMARK  135  A    between atoms: _347  and  _349
REMARK  136  A    between atoms: _349  and  _350
REMARK  137  A    between atoms: _352  and  _354
REMARK  138  A    between atoms: _354  and  _355
REMARK  139  A    between atoms: _354  and  _357
REMARK  140  A    between atoms: _357  and  _358
REMARK  141  A    between atoms: _358  and  _359
REMARK  142  A    between atoms: _359  and  _360
REMARK  143  A    between atoms: _360  and  _361
REMARK  144  A    between atoms: _365  and  _367
REMARK  145  A    between atoms: _367  and  _368
REMARK  146  A    between atoms: _367  and  _370
REMARK  147  A    between atoms: _370  and  _371
REMARK  148  A    between atoms: _374  and  _376
REMARK  149  A    between atoms: _376  and  _377
REMARK  150  A    between atoms: _380  and  _382
REMARK  151  A    between atoms: _382  and  _383
REMARK  152  A    between atoms: _385  and  _387
REMARK  153  A    between atoms: _387  and  _388
REMARK  154  A    between atoms: _387  and  _390
REMARK  155  A    between atoms: _390  and  _391
REMARK  156  A    between atoms: _394  and  _396
REMARK  157  A    between atoms: _396  and  _397
REMARK  158  A    between atoms: _396  and  _399
REMARK  159  A    between atoms: _399  and  _400
REMARK  160  A    between atoms: _403  and  _405
REMARK  161  A    between atoms: _405  and  _406
REMARK  162  A    between atoms: _409  and  _411
REMARK  163  A    between atoms: _411  and  _412
REMARK  164  A    between atoms: _411  and  _414
REMARK  165  A    between atoms: _414  and  _415
REMARK  166  A    between atoms: _415  and  _416
REMARK  167  A    between atoms: _419  and  _421
REMARK  168  A    between atoms: _421  and  _422
REMARK  169  A    between atoms: _421  and  _424
REMARK  170  A    between atoms: _427  and  _429
REMARK  171  A    between atoms: _429  and  _430
REMARK  172  A    between atoms: _429  and  _432
REMARK  173  A    between atoms: _432  and  _433
REMARK  174  A    between atoms: _436  and  _438
REMARK  175  A    between atoms: _438  and  _439
REMARK  176  A    between atoms: _441  and  _443
REMARK  177  A    between atoms: _443  and  _444
REMARK  178  A    between atoms: _443  and  _446
REMARK  179  A    between atoms: _449  and  _451
REMARK  180  A    between atoms: _451  and  _452
REMARK  181  A    between atoms: _454  and  _456
REMARK  182  A    between atoms: _456  and  _457
REMARK  183  A    between atoms: _456  and  _459
REMARK  184  A    between atoms: _459  and  _460
REMARK  185  A    between atoms: _463  and  _465
REMARK  186  A    between atoms: _465  and  _466
REMARK  187  A    between atoms: _465  and  _468
REMARK  188  A    between atoms: _468  and  _469
REMARK  189  A    between atoms: _474  and  _476
REMARK  190  A    between atoms: _476  and  _477
REMARK  191  A    between atoms: _476  and  _479
REMARK  192  A    between atoms: _482  and  _484
REMARK  193  A    between atoms: _484  and  _485
REMARK  194  A    between atoms: _484  and  _487
REMARK  195  A    between atoms: _487  and  _488
REMARK  196  A    between atoms: _488  and  _489
REMARK  197  A    between atoms: _494  and  _496
REMARK  198  A    between atoms: _496  and  _497
REMARK  199  A    between atoms: _501  and  _502
REMARK  200  A    between atoms: _507  and  _509
REMARK  201  A    between atoms: _509  and  _510
REMARK  202  A    between atoms: _509  and  _512
REMARK  203  A    between atoms: _512  and  _513
REMARK  204  A    between atoms: _513  and  _514
REMARK  205  A    between atoms: _517  and  _519
REMARK  206  A    between atoms: _519  and  _520
REMARK  207  A    between atoms: _519  and  _522
REMARK  208  A    between atoms: _525  and  _527
REMARK  209  A    between atoms: _527  and  _528
REMARK  210  A    between atoms: _527  and  _530
REMARK  211  A    between atoms: _530  and  _531
REMARK  212  A    between atoms: _535  and  _536
REMARK  213  A    between atoms: _541  and  _543
REMARK  214  A    between atoms: _543  and  _544
REMARK  215  A    between atoms: _543  and  _546
REMARK  216  A    between atoms: _546  and  _547
REMARK  217  A    between atoms: _550  and  _552
REMARK  218  A    between atoms: _552  and  _553
REMARK  219  A    between atoms: _556  and  _558
REMARK  220  A    between atoms: _558  and  _559
REMARK  221  A    between atoms: _558  and  _561
REMARK  222  A    between atoms: _561  and  _562
REMARK  223  A    between atoms: _565  and  _567
REMARK  224  A    between atoms: _567  and  _568
REMARK  225  A    between atoms: _567  and  _570
REMARK  226  A    between atoms: _570  and  _571
REMARK  227  A    between atoms: _573  and  _575
REMARK  228  A    between atoms: _575  and  _576
REMARK  229  A    between atoms: _578  and  _580
REMARK  230  A    between atoms: _580  and  _581
REMARK  231  A    between atoms: _580  and  _583
REMARK  232  A    between atoms: _583  and  _584
REMARK  233  A    between atoms: _587  and  _589
REMARK  234  A    between atoms: _589  and  _590
REMARK  235  A    between atoms: _589  and  _592
REMARK                            x       y       z     vdW  Elec       q    Type
REMARK                         _______ _______ _______ _____ _____    ______ ____
ROOT
ATOM      1  O   HOH     1      -3.835  -9.767   0.053  0.00  0.00    +0.000 OA
ENDROOT
TORSDOF 0
REMARK  Name = ../refined-set-2016/4xtv/4xtv_pocket.pdb
REMARK  235 active torsions:
REMARK  status: ('A' for Active; 'I' for Inactive)
REMARK    1  A    between atoms: _1  and  _3
REMARK    2  A    between atoms: _3  and  _4
REMARK    3  A    between atoms: _3  and  _6
REMARK    4  A    between atoms: _6  and  _7
REMARK    5  A    between atoms: _10  and  _12
REMARK    6  A    between atoms: _12  and  _13
REMARK    7  A    between atoms: _15  and  _17
REMARK    8  A    between atoms: _17  and  _18
REMARK    9  A    between atoms: _17  and  _20
REMARK   10  A    between atoms: _20  and  _21
REMARK   11  A    between atoms: _23  and  _25
REMARK   12  A    between atoms: _25  and  _26
REMARK   13  A    between atoms: _25  and  _28
REMARK   14  A    between atoms: _28  and  _29
REMARK   15  A    between atoms: _32  and  _34
REMARK   16  A    between atoms: _34  and  _35
REMARK   17  A    between atoms: _34  and  _37
REMARK   18  A    between atoms: _37  and  _38
REMARK   19  A    between atoms: _43  and  _45
REMARK   20  A    between atoms: _45  and  _46
REMARK   21  A    between atoms: _49  and  _51
REMARK   22  A    between atoms: _51  and  _52
REMARK   23  A    between atoms: _51  and  _54
REMARK   24  A    between atoms: _54  and  _55
REMARK   25  A    between atoms: _58  and  _60
REMARK   26  A    between atoms: _60  and  _61
REMARK   27  A    between atoms: _60  and  _63
REMARK   28  A    between atoms: _63  and  _64
REMARK   29  A    between atoms: _67  and  _69
REMARK   30  A    between atoms: _69  and  _70
REMARK   31  A    between atoms: _69  and  _72
REMARK   32  A    between atoms: _72  and  _73
REMARK   33  A    between atoms: _76  and  _78
REMARK   34  A    between atoms: _78  and  _79
REMARK   35  A    between atoms: _82  and  _84
REMARK   36  A    between atoms: _84  and  _85
REMARK   37  A    between atoms: _84  and  _87
REMARK   38  A    between atoms: _87  and  _88
REMARK   39  A    between atoms: _88  and  _89
REMARK   40  A    between atoms: _94  and  _96
REMARK   41  A    between atoms: _96  and  _97
REMARK   42  A    between atoms: _96  and  _99
REMARK   43  A    between atoms: _99  and  _100
REMARK   44  A    between atoms: _103  and  _105
REMARK   45  A    between atoms: _105  and  _106
REMARK   46  A    between atoms: _109  and  _111
REMARK   47  A    between atoms: _111  and  _112
REMARK   48  A    between atoms: _114  and  _116
REMARK   49  A    between atoms: _116  and  _117
REMARK   50  A    between atoms: _116  and  _119
REMARK   51  A    between atoms: _119  and  _120
REMARK   52  A    between atoms: _120  and  _121
REMARK   53  A    between atoms: _121  and  _122
REMARK   54  A    between atoms: _131  and  _133
REMARK   55  A    between atoms: _133  and  _134
REMARK   56  A    between atoms: _136  and  _138
REMARK   57  A    between atoms: _138  and  _139
REMARK   58  A    between atoms: _138  and  _141
REMARK   59  A    between atoms: _141  and  _142
REMARK   60  A    between atoms: _142  and  _143
REMARK   61  A    between atoms: _143  and  _144
REMARK   62  A    between atoms: _153  and  _155
REMARK   63  A    between atoms: _155  and  _156
REMARK   64  A    between atoms: _155  and  _158
REMARK   65  A    between atoms: _158  and  _159
REMARK   66  A    between atoms: _164  and  _166
REMARK   67  A    between atoms: _166  and  _167
REMARK   68  A    between atoms: _169  and  _171
REMARK   69  A    between atoms: _171  and  _172
REMARK   70  A    between atoms: _171  and  _174
REMARK   71  A    between atoms: _174  and  _175
REMARK   72  A    between atoms: _175  and  _176
REMARK   73  A    between atoms: _176  and  _177
REMARK   74  A    between atoms: _186  and  _188
REMARK   75  A    between atoms: _188  and  _189
REMARK   76  A    between atoms: _191  and  _193
REMARK   77  A    between atoms: _193  and  _194
REMARK   78  A    between atoms: _193  and  _196
REMARK   79  A    between atoms: _196  and  _197
REMARK   80  A    between atoms: _207  and  _209
REMARK   81  A    between atoms: _209  and  _210
REMARK   82  A    between atoms: _213  and  _215
REMARK   83  A    between atoms: _215  and  _216
REMARK   84  A    between atoms: _219  and  _221
REMARK   85  A    between atoms: _221  and  _222
REMARK   86  A    between atoms: _221  and  _224
REMARK   87  A    between atoms: _224  and  _225
REMARK   88  A    between atoms: _228  and  _230
REMARK   89  A    between atoms: _230  and  _231
REMARK   90  A    between atoms: _230  and  _233
REMARK   91  A    between atoms: _233  and  _234
REMARK   92  A    between atoms: _234  and  _235
REMARK   93  A    between atoms: _240  and  _242
REMARK   94  A    between atoms: _242  and  _243
REMARK   95  A    between atoms: _242  and  _245
REMARK   96  A    between atoms: _245  and  _246
REMARK   97  A    between atoms: _249  and  _251
REMARK   98  A    between atoms: _251  and  _252
REMARK   99  A    between atoms: _251  and  _254
REMARK  100  A    between atoms: _254  and  _255
REMARK  101  A    between atoms: _258  and  _260
REMARK  102  A    between atoms: _260  and  _261
REMARK  103  A    between atoms: _260  and  _263
REMARK  104  A    between atoms: _263  and  _264
REMARK  105  A    between atoms: _267  and  _269
REMARK  106  A    between atoms: _269  and  _270
REMARK  107  A    between atoms: _269  and  _272
REMARK  108  A    between atoms: _272  and  _273
REMARK  109  A    between atoms: _275  and  _277
REMARK  110  A    between atoms: _277  and  _278
REMARK  111  A    between atoms: _277  and  _280
REMARK  112  A    between atoms: _283  and  _285
REMARK  113  A    between atoms: _285  and  _286
REMARK  114  A    between atoms: _285  and  _288
REMARK  115  A    between atoms: _288  and  _289
REMARK  116  A    between atoms: _289  and  _290
REMARK  117  A    between atoms: _290  and  _291
REMARK  118  A    between atoms: _291  and  _292
REMARK  119  A    between atoms: _296  and  _298
REMARK  120  A    between atoms: _298  and  _299
REMARK  121  A    between atoms: _298  and  _301
REMARK  122  A    between atoms: _301  and  _302
REMARK  123  A    between atoms: _313  and  _314
REMARK  124  A    between atoms: _319  and  _321
REMARK  125  A    between atoms: _321  and  _322
REMARK  126  A    between atoms: _321  and  _324
REMARK  127  A    between atoms: _324  and  _325
REMARK  128  A    between atoms: _330  and  _332
REMARK  129  A    between atoms: _332  and  _333
REMARK  130  A    between atoms: _332  and  _335
REMARK  131  A    between atoms: _335  and  _336
REMARK  132  A    between atoms: _339  and  _341
REMARK  133  A    between atoms: _341  and  _342
REMARK  134  A    between atoms: _341  and  _344
REMARK  135  A    between atoms: _347  and  _349
REMARK  136  A    between atoms: _349  and  _350
REMARK  137  A    between atoms: _352  and  _354
REMARK  138  A    between atoms: _354  and  _355
REMARK  139  A    between atoms: _354  and  _357
REMARK  140  A    between atoms: _357  and  _358
REMARK  141  A    between atoms: _358  and  _359
REMARK  142  A    between atoms: _359  and  _360
REMARK  143  A    between atoms: _360  and  _361
REMARK  144  A    between atoms: _365  and  _367
REMARK  145  A    between atoms: _367  and  _368
REMARK  146  A    between atoms: _367  and  _370
REMARK  147  A    between atoms: _370  and  _371
REMARK  148  A    between atoms: _374  and  _376
REMARK  149  A    between atoms: _376  and  _377
REMARK  150  A    between atoms: _380  and  _382
REMARK  151  A    between atoms: _382  and  _383
REMARK  152  A    between atoms: _385  and  _387
REMARK  153  A    between atoms: _387  and  _388
REMARK  154  A    between atoms: _387  and  _390
REMARK  155  A    between atoms: _390  and  _391
REMARK  156  A    between atoms: _394  and  _396
REMARK  157  A    between atoms: _396  and  _397
REMARK  158  A    between atoms: _396  and  _399
REMARK  159  A    between atoms: _399  and  _400
REMARK  160  A    between atoms: _403  and  _405
REMARK  161  A    between atoms: _405  and  _406
REMARK  162  A    between atoms: _409  and  _411
REMARK  163  A    between atoms: _411  and  _412
REMARK  164  A    between atoms: _411  and  _414
REMARK  165  A    between atoms: _414  and  _415
REMARK  166  A    between atoms: _415  and  _416
REMARK  167  A    between atoms: _419  and  _421
REMARK  168  A    between atoms: _421  and  _422
REMARK  169  A    between atoms: _421  and  _424
REMARK  170  A    between atoms: _427  and  _429
REMARK  171  A    between atoms: _429  and  _430
REMARK  172  A    between atoms: _429  and  _432
REMARK  173  A    between atoms: _432  and  _433
REMARK  174  A    between atoms: _436  and  _438
REMARK  175  A    between atoms: _438  and  _439
REMARK  176  A    between atoms: _441  and  _443
REMARK  177  A    between atoms: _443  and  _444
REMARK  178  A    between atoms: _443  and  _446
REMARK  179  A    between atoms: _449  and  _451
REMARK  180  A    between atoms: _451  and  _452
REMARK  181  A    between atoms: _454  and  _456
REMARK  182  A    between atoms: _456  and  _457
REMARK  183  A    between atoms: _456  and  _459
REMARK  184  A    between atoms: _459  and  _460
REMARK  185  A    between atoms: _463  and  _465
REMARK  186  A    between atoms: _465  and  _466
REMARK  187  A    between atoms: _465  and  _468
REMARK  188  A    between atoms: _468  and  _469
REMARK  189  A    between atoms: _474  and  _476
REMARK  190  A    between atoms: _476  and  _477
REMARK  191  A    between atoms: _476  and  _479
REMARK  192  A    between atoms: _482  and  _484
REMARK  193  A    between atoms: _484  and  _485
REMARK  194  A    between atoms: _484  and  _487
REMARK  195  A    between atoms: _487  and  _488
REMARK  196  A    between atoms: _488  and  _489
REMARK  197  A    between atoms: _494  and  _496
REMARK  198  A    between atoms: _496  and  _497
REMARK  199  A    between atoms: _501  and  _502
REMARK  200  A    between atoms: _507  and  _509
REMARK  201  A    between atoms: _509  and  _510
REMARK  202  A    between atoms: _509  and  _512
REMARK  203  A    between atoms: _512  and  _513
REMARK  204  A    between atoms: _513  and  _514
REMARK  205  A    between atoms: _517  and  _519
REMARK  206  A    between atoms: _519  and  _520
REMARK  207  A    between atoms: _519  and  _522
REMARK  208  A    between atoms: _525  and  _527
REMARK  209  A    between atoms: _527  and  _528
REMARK  210  A    between atoms: _527  and  _530
REMARK  211  A    between atoms: _530  and  _531
REMARK  212  A    between atoms: _535  and  _536
REMARK  213  A    between atoms: _541  and  _543
REMARK  214  A    between atoms: _543  and  _544
REMARK  215  A    between atoms: _543  and  _546
REMARK  216  A    between atoms: _546  and  _547
REMARK  217  A    between atoms: _550  and  _552
REMARK  218  A    between atoms: _552  and  _553
REMARK  219  A    between atoms: _556  and  _558
REMARK  220  A    between atoms: _558  and  _559
REMARK  221  A    between atoms: _558  and  _561
REMARK  222  A    between atoms: _561  and  _562
REMARK  223  A    between atoms: _565  and  _567
REMARK  224  A    between atoms: _567  and  _568
REMARK  225  A    between atoms: _567  and  _570
REMARK  226  A    between atoms: _570  and  _571
REMARK  227  A    between atoms: _573  and  _575
REMARK  228  A    between atoms: _575  and  _576
REMARK  229  A    between atoms: _578  and  _580
REMARK  230  A    between atoms: _580  and  _581
REMARK  231  A    between atoms: _580  and  _583
REMARK  232  A    between atoms: _583  and  _584
REMARK  233  A    between atoms: _587  and  _589
REMARK  234  A    between atoms: _589  and  _590
REMARK  235  A    between atoms: _589  and  _592
REMARK                            x       y       z     vdW  Elec       q    Type
REMARK                         _______ _______ _______ _____ _____    ______ ____
ROOT
ATOM      1  O   HOH     1       3.053  -8.954   6.629  0.00  0.00    +0.000 OA
ENDROOT
TORSDOF 0
REMARK  Name = ../refined-set-2016/4xtv/4xtv_pocket.pdb
REMARK  235 active torsions:
REMARK  status: ('A' for Active; 'I' for Inactive)
REMARK    1  A    between atoms: _1  and  _3
REMARK    2  A    between atoms: _3  and  _4
REMARK    3  A    between atoms: _3  and  _6
REMARK    4  A    between atoms: _6  and  _7
REMARK    5  A    between atoms: _10  and  _12
REMARK    6  A    between atoms: _12  and  _13
REMARK    7  A    between atoms: _15  and  _17
REMARK    8  A    between atoms: _17  and  _18
REMARK    9  A    between atoms: _17  and  _20
REMARK   10  A    between atoms: _20  and  _21
REMARK   11  A    between atoms: _23  and  _25
REMARK   12  A    between atoms: _25  and  _26
REMARK   13  A    between atoms: _25  and  _28
REMARK   14  A    between atoms: _28  and  _29
REMARK   15  A    between atoms: _32  and  _34
REMARK   16  A    between atoms: _34  and  _35
REMARK   17  A    between atoms: _34  and  _37
REMARK   18  A    between atoms: _37  and  _38
REMARK   19  A    between atoms: _43  and  _45
REMARK   20  A    between atoms: _45  and  _46
REMARK   21  A    between atoms: _49  and  _51
REMARK   22  A    between atoms: _51  and  _52
REMARK   23  A    between atoms: _51  and  _54
REMARK   24  A    between atoms: _54  and  _55
REMARK   25  A    between atoms: _58  and  _60
REMARK   26  A    between atoms: _60  and  _61
REMARK   27  A    between atoms: _60  and  _63
REMARK   28  A    between atoms: _63  and  _64
REMARK   29  A    between atoms: _67  and  _69
REMARK   30  A    between atoms: _69  and  _70
REMARK   31  A    between atoms: _69  and  _72
REMARK   32  A    between atoms: _72  and  _73
REMARK   33  A    between atoms: _76  and  _78
REMARK   34  A    between atoms: _78  and  _79
REMARK   35  A    between atoms: _82  and  _84
REMARK   36  A    between atoms: _84  and  _85
REMARK   37  A    between atoms: _84  and  _87
REMARK   38  A    between atoms: _87  and  _88
REMARK   39  A    between atoms: _88  and  _89
REMARK   40  A    between atoms: _94  and  _96
REMARK   41  A    between atoms: _96  and  _97
REMARK   42  A    between atoms: _96  and  _99
REMARK   43  A    between atoms: _99  and  _100
REMARK   44  A    between atoms: _103  and  _105
REMARK   45  A    between atoms: _105  and  _106
REMARK   46  A    between atoms: _109  and  _111
REMARK   47  A    between atoms: _111  and  _112
REMARK   48  A    between atoms: _114  and  _116
REMARK   49  A    between atoms: _116  and  _117
REMARK   50  A    between atoms: _116  and  _119
REMARK   51  A    between atoms: _119  and  _120
REMARK   52  A    between atoms: _120  and  _121
REMARK   53  A    between atoms: _121  and  _122
REMARK   54  A    between atoms: _131  and  _133
REMARK   55  A    between atoms: _133  and  _134
REMARK   56  A    between atoms: _136  and  _138
REMARK   57  A    between atoms: _138  and  _139
REMARK   58  A    between atoms: _138  and  _141
REMARK   59  A    between atoms: _141  and  _142
REMARK   60  A    between atoms: _142  and  _143
REMARK   61  A    between atoms: _143  and  _144
REMARK   62  A    between atoms: _153  and  _155
REMARK   63  A    between atoms: _155  and  _156
REMARK   64  A    between atoms: _155  and  _158
REMARK   65  A    between atoms: _158  and  _159
REMARK   66  A    between atoms: _164  and  _166
REMARK   67  A    between atoms: _166  and  _167
REMARK   68  A    between atoms: _169  and  _171
REMARK   69  A    between atoms: _171  and  _172
REMARK   70  A    between atoms: _171  and  _174
REMARK   71  A    between atoms: _174  and  _175
REMARK   72  A    between atoms: _175  and  _176
REMARK   73  A    between atoms: _176  and  _177
REMARK   74  A    between atoms: _186  and  _188
REMARK   75  A    between atoms: _188  and  _189
REMARK   76  A    between atoms: _191  and  _193
REMARK   77  A    between atoms: _193  and  _194
REMARK   78  A    between atoms: _193  and  _196
REMARK   79  A    between atoms: _196  and  _197
REMARK   80  A    between atoms: _207  and  _209
REMARK   81  A    between atoms: _209  and  _210
REMARK   82  A    between atoms: _213  and  _215
REMARK   83  A    between atoms: _215  and  _216
REMARK   84  A    between atoms: _219  and  _221
REMARK   85  A    between atoms: _221  and  _222
REMARK   86  A    between atoms: _221  and  _224
REMARK   87  A    between atoms: _224  and  _225
REMARK   88  A    between atoms: _228  and  _230
REMARK   89  A    between atoms: _230  and  _231
REMARK   90  A    between atoms: _230  and  _233
REMARK   91  A    between atoms: _233  and  _234
REMARK   92  A    between atoms: _234  and  _235
REMARK   93  A    between atoms: _240  and  _242
REMARK   94  A    between atoms: _242  and  _243
REMARK   95  A    between atoms: _242  and  _245
REMARK   96  A    between atoms: _245  and  _246
REMARK   97  A    between atoms: _249  and  _251
REMARK   98  A    between atoms: _251  and  _252
REMARK   99  A    between atoms: _251  and  _254
REMARK  100  A    between atoms: _254  and  _255
REMARK  101  A    between atoms: _258  and  _260
REMARK  102  A    between atoms: _260  and  _261
REMARK  103  A    between atoms: _260  and  _263
REMARK  104  A    between atoms: _263  and  _264
REMARK  105  A    between atoms: _267  and  _269
REMARK  106  A    between atoms: _269  and  _270
REMARK  107  A    between atoms: _269  and  _272
REMARK  108  A    between atoms: _272  and  _273
REMARK  109  A    between atoms: _275  and  _277
REMARK  110  A    between atoms: _277  and  _278
REMARK  111  A    between atoms: _277  and  _280
REMARK  112  A    between atoms: _283  and  _285
REMARK  113  A    between atoms: _285  and  _286
REMARK  114  A    between atoms: _285  and  _288
REMARK  115  A    between atoms: _288  and  _289
REMARK  116  A    between atoms: _289  and  _290
REMARK  117  A    between atoms: _290  and  _291
REMARK  118  A    between atoms: _291  and  _292
REMARK  119  A    between atoms: _296  and  _298
REMARK  120  A    between atoms: _298  and  _299
REMARK  121  A    between atoms: _298  and  _301
REMARK  122  A    between atoms: _301  and  _302
REMARK  123  A    between atoms: _313  and  _314
REMARK  124  A    between atoms: _319  and  _321
REMARK  125  A    between atoms: _321  and  _322
REMARK  126  A    between atoms: _321  and  _324
REMARK  127  A    between atoms: _324  and  _325
REMARK  128  A    between atoms: _330  and  _332
REMARK  129  A    between atoms: _332  and  _333
REMARK  130  A    between atoms: _332  and  _335
REMARK  131  A    between atoms: _335  and  _336
REMARK  132  A    between atoms: _339  and  _341
REMARK  133  A    between atoms: _341  and  _342
REMARK  134  A    between atoms: _341  and  _344
REMARK  135  A    between atoms: _347  and  _349
REMARK  136  A    between atoms: _349  and  _350
REMARK  137  A    between atoms: _352  and  _354
REMARK  138  A    between atoms: _354  and  _355
REMARK  139  A    between atoms: _354  and  _357
REMARK  140  A    between atoms: _357  and  _358
REMARK  141  A    between atoms: _358  and  _359
REMARK  142  A    between atoms: _359  and  _360
REMARK  143  A    between atoms: _360  and  _361
REMARK  144  A    between atoms: _365  and  _367
REMARK  145  A    between atoms: _367  and  _368
REMARK  146  A    between atoms: _367  and  _370
REMARK  147  A    between atoms: _370  and  _371
REMARK  148  A    between atoms: _374  and  _376
REMARK  149  A    between atoms: _376  and  _377
REMARK  150  A    between atoms: _380  and  _382
REMARK  151  A    between atoms: _382  and  _383
REMARK  152  A    between atoms: _385  and  _387
REMARK  153  A    between atoms: _387  and  _388
REMARK  154  A    between atoms: _387  and  _390
REMARK  155  A    between atoms: _390  and  _391
REMARK  156  A    between atoms: _394  and  _396
REMARK  157  A    between atoms: _396  and  _397
REMARK  158  A    between atoms: _396  and  _399
REMARK  159  A    between atoms: _399  and  _400
REMARK  160  A    between atoms: _403  and  _405
REMARK  161  A    between atoms: _405  and  _406
REMARK  162  A    between atoms: _409  and  _411
REMARK  163  A    between atoms: _411  and  _412
REMARK  164  A    between atoms: _411  and  _414
REMARK  165  A    between atoms: _414  and  _415
REMARK  166  A    between atoms: _415  and  _416
REMARK  167  A    between atoms: _419  and  _421
REMARK  168  A    between atoms: _421  and  _422
REMARK  169  A    between atoms: _421  and  _424
REMARK  170  A    between atoms: _427  and  _429
REMARK  171  A    between atoms: _429  and  _430
REMARK  172  A    between atoms: _429  and  _432
REMARK  173  A    between atoms: _432  and  _433
REMARK  174  A    between atoms: _436  and  _438
REMARK  175  A    between atoms: _438  and  _439
REMARK  176  A    between atoms: _441  and  _443
REMARK  177  A    between atoms: _443  and  _444
REMARK  178  A    between atoms: _443  and  _446
REMARK  179  A    between atoms: _449  and  _451
REMARK  180  A    between atoms: _451  and  _452
REMARK  181  A    between atoms: _454  and  _456
REMARK  182  A    between atoms: _456  and  _457
REMARK  183  A    between atoms: _456  and  _459
REMARK  184  A    between atoms: _459  and  _460
REMARK  185  A    between atoms: _463  and  _465
REMARK  186  A    between atoms: _465  and  _466
REMARK  187  A    between atoms: _465  and  _468
REMARK  188  A    between atoms: _468  and  _469
REMARK  189  A    between atoms: _474  and  _476
REMARK  190  A    between atoms: _476  and  _477
REMARK  191  A    between atoms: _476  and  _479
REMARK  192  A    between atoms: _482  and  _484
REMARK  193  A    between atoms: _484  and  _485
REMARK  194  A    between atoms: _484  and  _487
REMARK  195  A    between atoms: _487  and  _488
REMARK  196  A    between atoms: _488  and  _489
REMARK  197  A    between atoms: _494  and  _496
REMARK  198  A    between atoms: _496  and  _497
REMARK  199  A    between atoms: _501  and  _502
REMARK  200  A    between atoms: _507  and  _509
REMARK  201  A    between atoms: _509  and  _510
REMARK  202  A    between atoms: _509  and  _512
REMARK  203  A    between atoms: _512  and  _513
REMARK  204  A    between atoms: _513  and  _514
REMARK  205  A    between atoms: _517  and  _519
REMARK  206  A    between atoms: _519  and  _520
REMARK  207  A    between atoms: _519  and  _522
REMARK  208  A    between atoms: _525  and  _527
REMARK  209  A    between atoms: _527  and  _528
REMARK  210  A    between atoms: _527  and  _530
REMARK  211  A    between atoms: _530  and  _531
REMARK  212  A    between atoms: _535  and  _536
REMARK  213  A    between atoms: _541  and  _543
REMARK  214  A    between atoms: _543  and  _544
REMARK  215  A    between atoms: _543  and  _546
REMARK  216  A    between atoms: _546  and  _547
REMARK  217  A    between atoms: _550  and  _552
REMARK  218  A    between atoms: _552  and  _553
REMARK  219  A    between atoms: _556  and  _558
REMARK  220  A    between atoms: _558  and  _559
REMARK  221  A    between atoms: _558  and  _561
REMARK  222  A    between atoms: _561  and  _562
REMARK  223  A    between atoms: _565  and  _567
REMARK  224  A    between atoms: _567  and  _568
REMARK  225  A    between atoms: _567  and  _570
REMARK  226  A    between atoms: _570  and  _571
REMARK  227  A    between atoms: _573  and  _575
REMARK  228  A    between atoms: _575  and  _576
REMARK  229  A    between atoms: _578  and  _580
REMARK  230  A    between atoms: _580  and  _581
REMARK  231  A    between atoms: _580  and  _583
REMARK  232  A    between atoms: _583  and  _584
REMARK  233  A    between atoms: _587  and  _589
REMARK  234  A    between atoms: _589  and  _590
REMARK  235  A    between atoms: _589  and  _592
REMARK                            x       y       z     vdW  Elec       q    Type
REMARK                         _______ _______ _______ _____ _____    ______ ____
ROOT
ATOM      1  O   HOH     1      -1.614   2.929  12.143  0.00  0.00    +0.000 OA
ENDROOT
TORSDOF 0
REMARK  Name = ../refined-set-2016/4xtv/4xtv_pocket.pdb
REMARK  235 active torsions:
REMARK  status: ('A' for Active; 'I' for Inactive)
REMARK    1  A    between atoms: _1  and  _3
REMARK    2  A    between atoms: _3  and  _4
REMARK    3  A    between atoms: _3  and  _6
REMARK    4  A    between atoms: _6  and  _7
REMARK    5  A    between atoms: _10  and  _12
REMARK    6  A    between atoms: _12  and  _13
REMARK    7  A    between atoms: _15  and  _17
REMARK    8  A    between atoms: _17  and  _18
REMARK    9  A    between atoms: _17  and  _20
REMARK   10  A    between atoms: _20  and  _21
REMARK   11  A    between atoms: _23  and  _25
REMARK   12  A    between atoms: _25  and  _26
REMARK   13  A    between atoms: _25  and  _28
REMARK   14  A    between atoms: _28  and  _29
REMARK   15  A    between atoms: _32  and  _34
REMARK   16  A    between atoms: _34  and  _35
REMARK   17  A    between atoms: _34  and  _37
REMARK   18  A    between atoms: _37  and  _38
REMARK   19  A    between atoms: _43  and  _45
REMARK   20  A    between atoms: _45  and  _46
REMARK   21  A    between atoms: _49  and  _51
REMARK   22  A    between atoms: _51  and  _52
REMARK   23  A    between atoms: _51  and  _54
REMARK   24  A    between atoms: _54  and  _55
REMARK   25  A    between atoms: _58  and  _60
REMARK   26  A    between atoms: _60  and  _61
REMARK   27  A    between atoms: _60  and  _63
REMARK   28  A    between atoms: _63  and  _64
REMARK   29  A    between atoms: _67  and  _69
REMARK   30  A    between atoms: _69  and  _70
REMARK   31  A    between atoms: _69  and  _72
REMARK   32  A    between atoms: _72  and  _73
REMARK   33  A    between atoms: _76  and  _78
REMARK   34  A    between atoms: _78  and  _79
REMARK   35  A    between atoms: _82  and  _84
REMARK   36  A    between atoms: _84  and  _85
REMARK   37  A    between atoms: _84  and  _87
REMARK   38  A    between atoms: _87  and  _88
REMARK   39  A    between atoms: _88  and  _89
REMARK   40  A    between atoms: _94  and  _96
REMARK   41  A    between atoms: _96  and  _97
REMARK   42  A    between atoms: _96  and  _99
REMARK   43  A    between atoms: _99  and  _100
REMARK   44  A    between atoms: _103  and  _105
REMARK   45  A    between atoms: _105  and  _106
REMARK   46  A    between atoms: _109  and  _111
REMARK   47  A    between atoms: _111  and  _112
REMARK   48  A    between atoms: _114  and  _116
REMARK   49  A    between atoms: _116  and  _117
REMARK   50  A    between atoms: _116  and  _119
REMARK   51  A    between atoms: _119  and  _120
REMARK   52  A    between atoms: _120  and  _121
REMARK   53  A    between atoms: _121  and  _122
REMARK   54  A    between atoms: _131  and  _133
REMARK   55  A    between atoms: _133  and  _134
REMARK   56  A    between atoms: _136  and  _138
REMARK   57  A    between atoms: _138  and  _139
REMARK   58  A    between atoms: _138  and  _141
REMARK   59  A    between atoms: _141  and  _142
REMARK   60  A    between atoms: _142  and  _143
REMARK   61  A    between atoms: _143  and  _144
REMARK   62  A    between atoms: _153  and  _155
REMARK   63  A    between atoms: _155  and  _156
REMARK   64  A    between atoms: _155  and  _158
REMARK   65  A    between atoms: _158  and  _159
REMARK   66  A    between atoms: _164  and  _166
REMARK   67  A    between atoms: _166  and  _167
REMARK   68  A    between atoms: _169  and  _171
REMARK   69  A    between atoms: _171  and  _172
REMARK   70  A    between atoms: _171  and  _174
REMARK   71  A    between atoms: _174  and  _175
REMARK   72  A    between atoms: _175  and  _176
REMARK   73  A    between atoms: _176  and  _177
REMARK   74  A    between atoms: _186  and  _188
REMARK   75  A    between atoms: _188  and  _189
REMARK   76  A    between atoms: _191  and  _193
REMARK   77  A    between atoms: _193  and  _194
REMARK   78  A    between atoms: _193  and  _196
REMARK   79  A    between atoms: _196  and  _197
REMARK   80  A    between atoms: _207  and  _209
REMARK   81  A    between atoms: _209  and  _210
REMARK   82  A    between atoms: _213  and  _215
REMARK   83  A    between atoms: _215  and  _216
REMARK   84  A    between atoms: _219  and  _221
REMARK   85  A    between atoms: _221  and  _222
REMARK   86  A    between atoms: _221  and  _224
REMARK   87  A    between atoms: _224  and  _225
REMARK   88  A    between atoms: _228  and  _230
REMARK   89  A    between atoms: _230  and  _231
REMARK   90  A    between atoms: _230  and  _233
REMARK   91  A    between atoms: _233  and  _234
REMARK   92  A    between atoms: _234  and  _235
REMARK   93  A    between atoms: _240  and  _242
REMARK   94  A    between atoms: _242  and  _243
REMARK   95  A    between atoms: _242  and  _245
REMARK   96  A    between atoms: _245  and  _246
REMARK   97  A    between atoms: _249  and  _251
REMARK   98  A    between atoms: _251  and  _252
REMARK   99  A    between atoms: _251  and  _254
REMARK  100  A    between atoms: _254  and  _255
REMARK  101  A    between atoms: _258  and  _260
REMARK  102  A    between atoms: _260  and  _261
REMARK  103  A    between atoms: _260  and  _263
REMARK  104  A    between atoms: _263  and  _264
REMARK  105  A    between atoms: _267  and  _269
REMARK  106  A    between atoms: _269  and  _270
REMARK  107  A    between atoms: _269  and  _272
REMARK  108  A    between atoms: _272  and  _273
REMARK  109  A    between atoms: _275  and  _277
REMARK  110  A    between atoms: _277  and  _278
REMARK  111  A    between atoms: _277  and  _280
REMARK  112  A    between atoms: _283  and  _285
REMARK  113  A    between atoms: _285  and  _286
REMARK  114  A    between atoms: _285  and  _288
REMARK  115  A    between atoms: _288  and  _289
REMARK  116  A    between atoms: _289  and  _290
REMARK  117  A    between atoms: _290  and  _291
REMARK  118  A    between atoms: _291  and  _292
REMARK  119  A    between atoms: _296  and  _298
REMARK  120  A    between atoms: _298  and  _299
REMARK  121  A    between atoms: _298  and  _301
REMARK  122  A    between atoms: _301  and  _302
REMARK  123  A    between atoms: _313  and  _314
REMARK  124  A    between atoms: _319  and  _321
REMARK  125  A    between atoms: _321  and  _322
REMARK  126  A    between atoms: _321  and  _324
REMARK  127  A    between atoms: _324  and  _325
REMARK  128  A    between atoms: _330  and  _332
REMARK  129  A    between atoms: _332  and  _333
REMARK  130  A    between atoms: _332  and  _335
REMARK  131  A    between atoms: _335  and  _336
REMARK  132  A    between atoms: _339  and  _341
REMARK  133  A    between atoms: _341  and  _342
REMARK  134  A    between atoms: _341  and  _344
REMARK  135  A    between atoms: _347  and  _349
REMARK  136  A    between atoms: _349  and  _350
REMARK  137  A    between atoms: _352  and  _354
REMARK  138  A    between atoms: _354  and  _355
REMARK  139  A    between atoms: _354  and  _357
REMARK  140  A    between atoms: _357  and  _358
REMARK  141  A    between atoms: _358  and  _359
REMARK  142  A    between atoms: _359  and  _360
REMARK  143  A    between atoms: _360  and  _361
REMARK  144  A    between atoms: _365  and  _367
REMARK  145  A    between atoms: _367  and  _368
REMARK  146  A    between atoms: _367  and  _370
REMARK  147  A    between atoms: _370  and  _371
REMARK  148  A    between atoms: _374  and  _376
REMARK  149  A    between atoms: _376  and  _377
REMARK  150  A    between atoms: _380  and  _382
REMARK  151  A    between atoms: _382  and  _383
REMARK  152  A    between atoms: _385  and  _387
REMARK  153  A    between atoms: _387  and  _388
REMARK  154  A    between atoms: _387  and  _390
REMARK  155  A    between atoms: _390  and  _391
REMARK  156  A    between atoms: _394  and  _396
REMARK  157  A    between atoms: _396  and  _397
REMARK  158  A    between atoms: _396  and  _399
REMARK  159  A    between atoms: _399  and  _400
REMARK  160  A    between atoms: _403  and  _405
REMARK  161  A    between atoms: _405  and  _406
REMARK  162  A    between atoms: _409  and  _411
REMARK  163  A    between atoms: _411  and  _412
REMARK  164  A    between atoms: _411  and  _414
REMARK  165  A    between atoms: _414  and  _415
REMARK  166  A    between atoms: _415  and  _416
REMARK  167  A    between atoms: _419  and  _421
REMARK  168  A    between atoms: _421  and  _422
REMARK  169  A    between atoms: _421  and  _424
REMARK  170  A    between atoms: _427  and  _429
REMARK  171  A    between atoms: _429  and  _430
REMARK  172  A    between atoms: _429  and  _432
REMARK  173  A    between atoms: _432  and  _433
REMARK  174  A    between atoms: _436  and  _438
REMARK  175  A    between atoms: _438  and  _439
REMARK  176  A    between atoms: _441  and  _443
REMARK  177  A    between atoms: _443  and  _444
REMARK  178  A    between atoms: _443  and  _446
REMARK  179  A    between atoms: _449  and  _451
REMARK  180  A    between atoms: _451  and  _452
REMARK  181  A    between atoms: _454  and  _456
REMARK  182  A    between atoms: _456  and  _457
REMARK  183  A    between atoms: _456  and  _459
REMARK  184  A    between atoms: _459  and  _460
REMARK  185  A    between atoms: _463  and  _465
REMARK  186  A    between atoms: _465  and  _466
REMARK  187  A    between atoms: _465  and  _468
REMARK  188  A    between atoms: _468  and  _469
REMARK  189  A    between atoms: _474  and  _476
REMARK  190  A    between atoms: _476  and  _477
REMARK  191  A    between atoms: _476  and  _479
REMARK  192  A    between atoms: _482  and  _484
REMARK  193  A    between atoms: _484  and  _485
REMARK  194  A    between atoms: _484  and  _487
REMARK  195  A    between atoms: _487  and  _488
REMARK  196  A    between atoms: _488  and  _489
REMARK  197  A    between atoms: _494  and  _496
REMARK  198  A    between atoms: _496  and  _497
REMARK  199  A    between atoms: _501  and  _502
REMARK  200  A    between atoms: _507  and  _509
REMARK  201  A    between atoms: _509  and  _510
REMARK  202  A    between atoms: _509  and  _512
REMARK  203  A    between atoms: _512  and  _513
REMARK  204  A    between atoms: _513  and  _514
REMARK  205  A    between atoms: _517  and  _519
REMARK  206  A    between atoms: _519  and  _520
REMARK  207  A    between atoms: _519  and  _522
REMARK  208  A    between atoms: _525  and  _527
REMARK  209  A    between atoms: _527  and  _528
REMARK  210  A    between atoms: _527  and  _530
REMARK  211  A    between atoms: _530  and  _531
REMARK  212  A    between atoms: _535  and  _536
REMARK  213  A    between atoms: _541  and  _543
REMARK  214  A    between atoms: _543  and  _544
REMARK  215  A    between atoms: _543  and  _546
REMARK  216  A    between atoms: _546  and  _547
REMARK  217  A    between atoms: _550  and  _552
REMARK  218  A    between atoms: _552  and  _553
REMARK  219  A    between atoms: _556  and  _558
REMARK  220  A    between atoms: _558  and  _559
REMARK  221  A    between atoms: _558  and  _561
REMARK  222  A    between atoms: _561  and  _562
REMARK  223  A    between atoms: _565  and  _567
REMARK  224  A    between atoms: _567  and  _568
REMARK  225  A    between atoms: _567  and  _570
REMARK  226  A    between atoms: _570  and  _571
REMARK  227  A    between atoms: _573  and  _575
REMARK  228  A    between atoms: _575  and  _576
REMARK  229  A    between atoms: _578  and  _580
REMARK  230  A    between atoms: _580  and  _581
REMARK  231  A    between atoms: _580  and  _583
REMARK  232  A    between atoms: _583  and  _584
REMARK  233  A    between atoms: _587  and  _589
REMARK  234  A    between atoms: _589  and  _590
REMARK  235  A    between atoms: _589  and  _592
REMARK                            x       y       z     vdW  Elec       q    Type
REMARK                         _______ _______ _______ _____ _____    ______ ____
ROOT
ATOM      1  O   HOH     1      -2.588   4.342   9.915  0.00  0.00    +0.000 OA
ENDROOT
TORSDOF 0
REMARK  Name = ../refined-set-2016/4xtv/4xtv_pocket.pdb
REMARK  235 active torsions:
REMARK  status: ('A' for Active; 'I' for Inactive)
REMARK    1  A    between atoms: _1  and  _3
REMARK    2  A    between atoms: _3  and  _4
REMARK    3  A    between atoms: _3  and  _6
REMARK    4  A    between atoms: _6  and  _7
REMARK    5  A    between atoms: _10  and  _12
REMARK    6  A    between atoms: _12  and  _13
REMARK    7  A    between atoms: _15  and  _17
REMARK    8  A    between atoms: _17  and  _18
REMARK    9  A    between atoms: _17  and  _20
REMARK   10  A    between atoms: _20  and  _21
REMARK   11  A    between atoms: _23  and  _25
REMARK   12  A    between atoms: _25  and  _26
REMARK   13  A    between atoms: _25  and  _28
REMARK   14  A    between atoms: _28  and  _29
REMARK   15  A    between atoms: _32  and  _34
REMARK   16  A    between atoms: _34  and  _35
REMARK   17  A    between atoms: _34  and  _37
REMARK   18  A    between atoms: _37  and  _38
REMARK   19  A    between atoms: _43  and  _45
REMARK   20  A    between atoms: _45  and  _46
REMARK   21  A    between atoms: _49  and  _51
REMARK   22  A    between atoms: _51  and  _52
REMARK   23  A    between atoms: _51  and  _54
REMARK   24  A    between atoms: _54  and  _55
REMARK   25  A    between atoms: _58  and  _60
REMARK   26  A    between atoms: _60  and  _61
REMARK   27  A    between atoms: _60  and  _63
REMARK   28  A    between atoms: _63  and  _64
REMARK   29  A    between atoms: _67  and  _69
REMARK   30  A    between atoms: _69  and  _70
REMARK   31  A    between atoms: _69  and  _72
REMARK   32  A    between atoms: _72  and  _73
REMARK   33  A    between atoms: _76  and  _78
REMARK   34  A    between atoms: _78  and  _79
REMARK   35  A    between atoms: _82  and  _84
REMARK   36  A    between atoms: _84  and  _85
REMARK   37  A    between atoms: _84  and  _87
REMARK   38  A    between atoms: _87  and  _88
REMARK   39  A    between atoms: _88  and  _89
REMARK   40  A    between atoms: _94  and  _96
REMARK   41  A    between atoms: _96  and  _97
REMARK   42  A    between atoms: _96  and  _99
REMARK   43  A    between atoms: _99  and  _100
REMARK   44  A    between atoms: _103  and  _105
REMARK   45  A    between atoms: _105  and  _106
REMARK   46  A    between atoms: _109  and  _111
REMARK   47  A    between atoms: _111  and  _112
REMARK   48  A    between atoms: _114  and  _116
REMARK   49  A    between atoms: _116  and  _117
REMARK   50  A    between atoms: _116  and  _119
REMARK   51  A    between atoms: _119  and  _120
REMARK   52  A    between atoms: _120  and  _121
REMARK   53  A    between atoms: _121  and  _122
REMARK   54  A    between atoms: _131  and  _133
REMARK   55  A    between atoms: _133  and  _134
REMARK   56  A    between atoms: _136  and  _138
REMARK   57  A    between atoms: _138  and  _139
REMARK   58  A    between atoms: _138  and  _141
REMARK   59  A    between atoms: _141  and  _142
REMARK   60  A    between atoms: _142  and  _143
REMARK   61  A    between atoms: _143  and  _144
REMARK   62  A    between atoms: _153  and  _155
REMARK   63  A    between atoms: _155  and  _156
REMARK   64  A    between atoms: _155  and  _158
REMARK   65  A    between atoms: _158  and  _159
REMARK   66  A    between atoms: _164  and  _166
REMARK   67  A    between atoms: _166  and  _167
REMARK   68  A    between atoms: _169  and  _171
REMARK   69  A    between atoms: _171  and  _172
REMARK   70  A    between atoms: _171  and  _174
REMARK   71  A    between atoms: _174  and  _175
REMARK   72  A    between atoms: _175  and  _176
REMARK   73  A    between atoms: _176  and  _177
REMARK   74  A    between atoms: _186  and  _188
REMARK   75  A    between atoms: _188  and  _189
REMARK   76  A    between atoms: _191  and  _193
REMARK   77  A    between atoms: _193  and  _194
REMARK   78  A    between atoms: _193  and  _196
REMARK   79  A    between atoms: _196  and  _197
REMARK   80  A    between atoms: _207  and  _209
REMARK   81  A    between atoms: _209  and  _210
REMARK   82  A    between atoms: _213  and  _215
REMARK   83  A    between atoms: _215  and  _216
REMARK   84  A    between atoms: _219  and  _221
REMARK   85  A    between atoms: _221  and  _222
REMARK   86  A    between atoms: _221  and  _224
REMARK   87  A    between atoms: _224  and  _225
REMARK   88  A    between atoms: _228  and  _230
REMARK   89  A    between atoms: _230  and  _231
REMARK   90  A    between atoms: _230  and  _233
REMARK   91  A    between atoms: _233  and  _234
REMARK   92  A    between atoms: _234  and  _235
REMARK   93  A    between atoms: _240  and  _242
REMARK   94  A    between atoms: _242  and  _243
REMARK   95  A    between atoms: _242  and  _245
REMARK   96  A    between atoms: _245  and  _246
REMARK   97  A    between atoms: _249  and  _251
REMARK   98  A    between atoms: _251  and  _252
REMARK   99  A    between atoms: _251  and  _254
REMARK  100  A    between atoms: _254  and  _255
REMARK  101  A    between atoms: _258  and  _260
REMARK  102  A    between atoms: _260  and  _261
REMARK  103  A    between atoms: _260  and  _263
REMARK  104  A    between atoms: _263  and  _264
REMARK  105  A    between atoms: _267  and  _269
REMARK  106  A    between atoms: _269  and  _270
REMARK  107  A    between atoms: _269  and  _272
REMARK  108  A    between atoms: _272  and  _273
REMARK  109  A    between atoms: _275  and  _277
REMARK  110  A    between atoms: _277  and  _278
REMARK  111  A    between atoms: _277  and  _280
REMARK  112  A    between atoms: _283  and  _285
REMARK  113  A    between atoms: _285  and  _286
REMARK  114  A    between atoms: _285  and  _288
REMARK  115  A    between atoms: _288  and  _289
REMARK  116  A    between atoms: _289  and  _290
REMARK  117  A    between atoms: _290  and  _291
REMARK  118  A    between atoms: _291  and  _292
REMARK  119  A    between atoms: _296  and  _298
REMARK  120  A    between atoms: _298  and  _299
REMARK  121  A    between atoms: _298  and  _301
REMARK  122  A    between atoms: _301  and  _302
REMARK  123  A    between atoms: _313  and  _314
REMARK  124  A    between atoms: _319  and  _321
REMARK  125  A    between atoms: _321  and  _322
REMARK  126  A    between atoms: _321  and  _324
REMARK  127  A    between atoms: _324  and  _325
REMARK  128  A    between atoms: _330  and  _332
REMARK  129  A    between atoms: _332  and  _333
REMARK  130  A    between atoms: _332  and  _335
REMARK  131  A    between atoms: _335  and  _336
REMARK  132  A    between atoms: _339  and  _341
REMARK  133  A    between atoms: _341  and  _342
REMARK  134  A    between atoms: _341  and  _344
REMARK  135  A    between atoms: _347  and  _349
REMARK  136  A    between atoms: _349  and  _350
REMARK  137  A    between atoms: _352  and  _354
REMARK  138  A    between atoms: _354  and  _355
REMARK  139  A    between atoms: _354  and  _357
REMARK  140  A    between atoms: _357  and  _358
REMARK  141  A    between atoms: _358  and  _359
REMARK  142  A    between atoms: _359  and  _360
REMARK  143  A    between atoms: _360  and  _361
REMARK  144  A    between atoms: _365  and  _367
REMARK  145  A    between atoms: _367  and  _368
REMARK  146  A    between atoms: _367  and  _370
REMARK  147  A    between atoms: _370  and  _371
REMARK  148  A    between atoms: _374  and  _376
REMARK  149  A    between atoms: _376  and  _377
REMARK  150  A    between atoms: _380  and  _382
REMARK  151  A    between atoms: _382  and  _383
REMARK  152  A    between atoms: _385  and  _387
REMARK  153  A    between atoms: _387  and  _388
REMARK  154  A    between atoms: _387  and  _390
REMARK  155  A    between atoms: _390  and  _391
REMARK  156  A    between atoms: _394  and  _396
REMARK  157  A    between atoms: _396  and  _397
REMARK  158  A    between atoms: _396  and  _399
REMARK  159  A    between atoms: _399  and  _400
REMARK  160  A    between atoms: _403  and  _405
REMARK  161  A    between atoms: _405  and  _406
REMARK  162  A    between atoms: _409  and  _411
REMARK  163  A    between atoms: _411  and  _412
REMARK  164  A    between atoms: _411  and  _414
REMARK  165  A    between atoms: _414  and  _415
REMARK  166  A    between atoms: _415  and  _416
REMARK  167  A    between atoms: _419  and  _421
REMARK  168  A    between atoms: _421  and  _422
REMARK  169  A    between atoms: _421  and  _424
REMARK  170  A    between atoms: _427  and  _429
REMARK  171  A    between atoms: _429  and  _430
REMARK  172  A    between atoms: _429  and  _432
REMARK  173  A    between atoms: _432  and  _433
REMARK  174  A    between atoms: _436  and  _438
REMARK  175  A    between atoms: _438  and  _439
REMARK  176  A    between atoms: _441  and  _443
REMARK  177  A    between atoms: _443  and  _444
REMARK  178  A    between atoms: _443  and  _446
REMARK  179  A    between atoms: _449  and  _451
REMARK  180  A    between atoms: _451  and  _452
REMARK  181  A    between atoms: _454  and  _456
REMARK  182  A    between atoms: _456  and  _457
REMARK  183  A    between atoms: _456  and  _459
REMARK  184  A    between atoms: _459  and  _460
REMARK  185  A    between atoms: _463  and  _465
REMARK  186  A    between atoms: _465  and  _466
REMARK  187  A    between atoms: _465  and  _468
REMARK  188  A    between atoms: _468  and  _469
REMARK  189  A    between atoms: _474  and  _476
REMARK  190  A    between atoms: _476  and  _477
REMARK  191  A    between atoms: _476  and  _479
REMARK  192  A    between atoms: _482  and  _484
REMARK  193  A    between atoms: _484  and  _485
REMARK  194  A    between atoms: _484  and  _487
REMARK  195  A    between atoms: _487  and  _488
REMARK  196  A    between atoms: _488  and  _489
REMARK  197  A    between atoms: _494  and  _496
REMARK  198  A    between atoms: _496  and  _497
REMARK  199  A    between atoms: _501  and  _502
REMARK  200  A    between atoms: _507  and  _509
REMARK  201  A    between atoms: _509  and  _510
REMARK  202  A    between atoms: _509  and  _512
REMARK  203  A    between atoms: _512  and  _513
REMARK  204  A    between atoms: _513  and  _514
REMARK  205  A    between atoms: _517  and  _519
REMARK  206  A    between atoms: _519  and  _520
REMARK  207  A    between atoms: _519  and  _522
REMARK  208  A    between atoms: _525  and  _527
REMARK  209  A    between atoms: _527  and  _528
REMARK  210  A    between atoms: _527  and  _530
REMARK  211  A    between atoms: _530  and  _531
REMARK  212  A    between atoms: _535  and  _536
REMARK  213  A    between atoms: _541  and  _543
REMARK  214  A    between atoms: _543  and  _544
REMARK  215  A    between atoms: _543  and  _546
REMARK  216  A    between atoms: _546  and  _547
REMARK  217  A    between atoms: _550  and  _552
REMARK  218  A    between atoms: _552  and  _553
REMARK  219  A    between atoms: _556  and  _558
REMARK  220  A    between atoms: _558  and  _559
REMARK  221  A    between atoms: _558  and  _561
REMARK  222  A    between atoms: _561  and  _562
REMARK  223  A    between atoms: _565  and  _567
REMARK  224  A    between atoms: _567  and  _568
REMARK  225  A    between atoms: _567  and  _570
REMARK  226  A    between atoms: _570  and  _571
REMARK  227  A    between atoms: _573  and  _575
REMARK  228  A    between atoms: _575  and  _576
REMARK  229  A    between atoms: _578  and  _580
REMARK  230  A    between atoms: _580  and  _581
REMARK  231  A    between atoms: _580  and  _583
REMARK  232  A    between atoms: _583  and  _584
REMARK  233  A    between atoms: _587  and  _589
REMARK  234  A    between atoms: _589  and  _590
REMARK  235  A    between atoms: _589  and  _592
REMARK                            x       y       z     vdW  Elec       q    Type
REMARK                         _______ _______ _______ _____ _____    ______ ____
ROOT
ATOM      1  O   HOH     1      -8.324   0.965   8.896  0.00  0.00    +0.000 OA
ENDROOT
TORSDOF 0
REMARK  Name = ../refined-set-2016/4xtv/4xtv_pocket.pdb
REMARK  235 active torsions:
REMARK  status: ('A' for Active; 'I' for Inactive)
REMARK    1  A    between atoms: _1  and  _3
REMARK    2  A    between atoms: _3  and  _4
REMARK    3  A    between atoms: _3  and  _6
REMARK    4  A    between atoms: _6  and  _7
REMARK    5  A    between atoms: _10  and  _12
REMARK    6  A    between atoms: _12  and  _13
REMARK    7  A    between atoms: _15  and  _17
REMARK    8  A    between atoms: _17  and  _18
REMARK    9  A    between atoms: _17  and  _20
REMARK   10  A    between atoms: _20  and  _21
REMARK   11  A    between atoms: _23  and  _25
REMARK   12  A    between atoms: _25  and  _26
REMARK   13  A    between atoms: _25  and  _28
REMARK   14  A    between atoms: _28  and  _29
REMARK   15  A    between atoms: _32  and  _34
REMARK   16  A    between atoms: _34  and  _35
REMARK   17  A    between atoms: _34  and  _37
REMARK   18  A    between atoms: _37  and  _38
REMARK   19  A    between atoms: _43  and  _45
REMARK   20  A    between atoms: _45  and  _46
REMARK   21  A    between atoms: _49  and  _51
REMARK   22  A    between atoms: _51  and  _52
REMARK   23  A    between atoms: _51  and  _54
REMARK   24  A    between atoms: _54  and  _55
REMARK   25  A    between atoms: _58  and  _60
REMARK   26  A    between atoms: _60  and  _61
REMARK   27  A    between atoms: _60  and  _63
REMARK   28  A    between atoms: _63  and  _64
REMARK   29  A    between atoms: _67  and  _69
REMARK   30  A    between atoms: _69  and  _70
REMARK   31  A    between atoms: _69  and  _72
REMARK   32  A    between atoms: _72  and  _73
REMARK   33  A    between atoms: _76  and  _78
REMARK   34  A    between atoms: _78  and  _79
REMARK   35  A    between atoms: _82  and  _84
REMARK   36  A    between atoms: _84  and  _85
REMARK   37  A    between atoms: _84  and  _87
REMARK   38  A    between atoms: _87  and  _88
REMARK   39  A    between atoms: _88  and  _89
REMARK   40  A    between atoms: _94  and  _96
REMARK   41  A    between atoms: _96  and  _97
REMARK   42  A    between atoms: _96  and  _99
REMARK   43  A    between atoms: _99  and  _100
REMARK   44  A    between atoms: _103  and  _105
REMARK   45  A    between atoms: _105  and  _106
REMARK   46  A    between atoms: _109  and  _111
REMARK   47  A    between atoms: _111  and  _112
REMARK   48  A    between atoms: _114  and  _116
REMARK   49  A    between atoms: _116  and  _117
REMARK   50  A    between atoms: _116  and  _119
REMARK   51  A    between atoms: _119  and  _120
REMARK   52  A    between atoms: _120  and  _121
REMARK   53  A    between atoms: _121  and  _122
REMARK   54  A    between atoms: _131  and  _133
REMARK   55  A    between atoms: _133  and  _134
REMARK   56  A    between atoms: _136  and  _138
REMARK   57  A    between atoms: _138  and  _139
REMARK   58  A    between atoms: _138  and  _141
REMARK   59  A    between atoms: _141  and  _142
REMARK   60  A    between atoms: _142  and  _143
REMARK   61  A    between atoms: _143  and  _144
REMARK   62  A    between atoms: _153  and  _155
REMARK   63  A    between atoms: _155  and  _156
REMARK   64  A    between atoms: _155  and  _158
REMARK   65  A    between atoms: _158  and  _159
REMARK   66  A    between atoms: _164  and  _166
REMARK   67  A    between atoms: _166  and  _167
REMARK   68  A    between atoms: _169  and  _171
REMARK   69  A    between atoms: _171  and  _172
REMARK   70  A    between atoms: _171  and  _174
REMARK   71  A    between atoms: _174  and  _175
REMARK   72  A    between atoms: _175  and  _176
REMARK   73  A    between atoms: _176  and  _177
REMARK   74  A    between atoms: _186  and  _188
REMARK   75  A    between atoms: _188  and  _189
REMARK   76  A    between atoms: _191  and  _193
REMARK   77  A    between atoms: _193  and  _194
REMARK   78  A    between atoms: _193  and  _196
REMARK   79  A    between atoms: _196  and  _197
REMARK   80  A    between atoms: _207  and  _209
REMARK   81  A    between atoms: _209  and  _210
REMARK   82  A    between atoms: _213  and  _215
REMARK   83  A    between atoms: _215  and  _216
REMARK   84  A    between atoms: _219  and  _221
REMARK   85  A    between atoms: _221  and  _222
REMARK   86  A    between atoms: _221  and  _224
REMARK   87  A    between atoms: _224  and  _225
REMARK   88  A    between atoms: _228  and  _230
REMARK   89  A    between atoms: _230  and  _231
REMARK   90  A    between atoms: _230  and  _233
REMARK   91  A    between atoms: _233  and  _234
REMARK   92  A    between atoms: _234  and  _235
REMARK   93  A    between atoms: _240  and  _242
REMARK   94  A    between atoms: _242  and  _243
REMARK   95  A    between atoms: _242  and  _245
REMARK   96  A    between atoms: _245  and  _246
REMARK   97  A    between atoms: _249  and  _251
REMARK   98  A    between atoms: _251  and  _252
REMARK   99  A    between atoms: _251  and  _254
REMARK  100  A    between atoms: _254  and  _255
REMARK  101  A    between atoms: _258  and  _260
REMARK  102  A    between atoms: _260  and  _261
REMARK  103  A    between atoms: _260  and  _263
REMARK  104  A    between atoms: _263  and  _264
REMARK  105  A    between atoms: _267  and  _269
REMARK  106  A    between atoms: _269  and  _270
REMARK  107  A    between atoms: _269  and  _272
REMARK  108  A    between atoms: _272  and  _273
REMARK  109  A    between atoms: _275  and  _277
REMARK  110  A    between atoms: _277  and  _278
REMARK  111  A    between atoms: _277  and  _280
REMARK  112  A    between atoms: _283  and  _285
REMARK  113  A    between atoms: _285  and  _286
REMARK  114  A    between atoms: _285  and  _288
REMARK  115  A    between atoms: _288  and  _289
REMARK  116  A    between atoms: _289  and  _290
REMARK  117  A    between atoms: _290  and  _291
REMARK  118  A    between atoms: _291  and  _292
REMARK  119  A    between atoms: _296  and  _298
REMARK  120  A    between atoms: _298  and  _299
REMARK  121  A    between atoms: _298  and  _301
REMARK  122  A    between atoms: _301  and  _302
REMARK  123  A    between atoms: _313  and  _314
REMARK  124  A    between atoms: _319  and  _321
REMARK  125  A    between atoms: _321  and  _322
REMARK  126  A    between atoms: _321  and  _324
REMARK  127  A    between atoms: _324  and  _325
REMARK  128  A    between atoms: _330  and  _332
REMARK  129  A    between atoms: _332  and  _333
REMARK  130  A    between atoms: _332  and  _335
REMARK  131  A    between atoms: _335  and  _336
REMARK  132  A    between atoms: _339  and  _341
REMARK  133  A    between atoms: _341  and  _342
REMARK  134  A    between atoms: _341  and  _344
REMARK  135  A    between atoms: _347  and  _349
REMARK  136  A    between atoms: _349  and  _350
REMARK  137  A    between atoms: _352  and  _354
REMARK  138  A    between atoms: _354  and  _355
REMARK  139  A    between atoms: _354  and  _357
REMARK  140  A    between atoms: _357  and  _358
REMARK  141  A    between atoms: _358  and  _359
REMARK  142  A    between atoms: _359  and  _360
REMARK  143  A    between atoms: _360  and  _361
REMARK  144  A    between atoms: _365  and  _367
REMARK  145  A    between atoms: _367  and  _368
REMARK  146  A    between atoms: _367  and  _370
REMARK  147  A    between atoms: _370  and  _371
REMARK  148  A    between atoms: _374  and  _376
REMARK  149  A    between atoms: _376  and  _377
REMARK  150  A    between atoms: _380  and  _382
REMARK  151  A    between atoms: _382  and  _383
REMARK  152  A    between atoms: _385  and  _387
REMARK  153  A    between atoms: _387  and  _388
REMARK  154  A    between atoms: _387  and  _390
REMARK  155  A    between atoms: _390  and  _391
REMARK  156  A    between atoms: _394  and  _396
REMARK  157  A    between atoms: _396  and  _397
REMARK  158  A    between atoms: _396  and  _399
REMARK  159  A    between atoms: _399  and  _400
REMARK  160  A    between atoms: _403  and  _405
REMARK  161  A    between atoms: _405  and  _406
REMARK  162  A    between atoms: _409  and  _411
REMARK  163  A    between atoms: _411  and  _412
REMARK  164  A    between atoms: _411  and  _414
REMARK  165  A    between atoms: _414  and  _415
REMARK  166  A    between atoms: _415  and  _416
REMARK  167  A    between atoms: _419  and  _421
REMARK  168  A    between atoms: _421  and  _422
REMARK  169  A    between atoms: _421  and  _424
REMARK  170  A    between atoms: _427  and  _429
REMARK  171  A    between atoms: _429  and  _430
REMARK  172  A    between atoms: _429  and  _432
REMARK  173  A    between atoms: _432  and  _433
REMARK  174  A    between atoms: _436  and  _438
REMARK  175  A    between atoms: _438  and  _439
REMARK  176  A    between atoms: _441  and  _443
REMARK  177  A    between atoms: _443  and  _444
REMARK  178  A    between atoms: _443  and  _446
REMARK  179  A    between atoms: _449  and  _451
REMARK  180  A    between atoms: _451  and  _452
REMARK  181  A    between atoms: _454  and  _456
REMARK  182  A    between atoms: _456  and  _457
REMARK  183  A    between atoms: _456  and  _459
REMARK  184  A    between atoms: _459  and  _460
REMARK  185  A    between atoms: _463  and  _465
REMARK  186  A    between atoms: _465  and  _466
REMARK  187  A    between atoms: _465  and  _468
REMARK  188  A    between atoms: _468  and  _469
REMARK  189  A    between atoms: _474  and  _476
REMARK  190  A    between atoms: _476  and  _477
REMARK  191  A    between atoms: _476  and  _479
REMARK  192  A    between atoms: _482  and  _484
REMARK  193  A    between atoms: _484  and  _485
REMARK  194  A    between atoms: _484  and  _487
REMARK  195  A    between atoms: _487  and  _488
REMARK  196  A    between atoms: _488  and  _489
REMARK  197  A    between atoms: _494  and  _496
REMARK  198  A    between atoms: _496  and  _497
REMARK  199  A    between atoms: _501  and  _502
REMARK  200  A    between atoms: _507  and  _509
REMARK  201  A    between atoms: _509  and  _510
REMARK  202  A    between atoms: _509  and  _512
REMARK  203  A    between atoms: _512  and  _513
REMARK  204  A    between atoms: _513  and  _514
REMARK  205  A    between atoms: _517  and  _519
REMARK  206  A    between atoms: _519  and  _520
REMARK  207  A    between atoms: _519  and  _522
REMARK  208  A    between atoms: _525  and  _527
REMARK  209  A    between atoms: _527  and  _528
REMARK  210  A    between atoms: _527  and  _530
REMARK  211  A    between atoms: _530  and  _531
REMARK  212  A    between atoms: _535  and  _536
REMARK  213  A    between atoms: _541  and  _543
REMARK  214  A    between atoms: _543  and  _544
REMARK  215  A    between atoms: _543  and  _546
REMARK  216  A    between atoms: _546  and  _547
REMARK  217  A    between atoms: _550  and  _552
REMARK  218  A    between atoms: _552  and  _553
REMARK  219  A    between atoms: _556  and  _558
REMARK  220  A    between atoms: _558  and  _559
REMARK  221  A    between atoms: _558  and  _561
REMARK  222  A    between atoms: _561  and  _562
REMARK  223  A    between atoms: _565  and  _567
REMARK  224  A    between atoms: _567  and  _568
REMARK  225  A    between atoms: _567  and  _570
REMARK  226  A    between atoms: _570  and  _571
REMARK  227  A    between atoms: _573  and  _575
REMARK  228  A    between atoms: _575  and  _576
REMARK  229  A    between atoms: _578  and  _580
REMARK  230  A    between atoms: _580  and  _581
REMARK  231  A    between atoms: _580  and  _583
REMARK  232  A    between atoms: _583  and  _584
REMARK  233  A    between atoms: _587  and  _589
REMARK  234  A    between atoms: _589  and  _590
REMARK  235  A    between atoms: _589  and  _592
REMARK                            x       y       z     vdW  Elec       q    Type
REMARK                         _______ _______ _______ _____ _____    ______ ____
ROOT
ATOM      1  O   HOH     1      -8.519   2.060   4.448  0.00  0.00    +0.000 OA
ENDROOT
TORSDOF 0
REMARK  Name = ../refined-set-2016/4xtv/4xtv_pocket.pdb
REMARK  235 active torsions:
REMARK  status: ('A' for Active; 'I' for Inactive)
REMARK    1  A    between atoms: _1  and  _3
REMARK    2  A    between atoms: _3  and  _4
REMARK    3  A    between atoms: _3  and  _6
REMARK    4  A    between atoms: _6  and  _7
REMARK    5  A    between atoms: _10  and  _12
REMARK    6  A    between atoms: _12  and  _13
REMARK    7  A    between atoms: _15  and  _17
REMARK    8  A    between atoms: _17  and  _18
REMARK    9  A    between atoms: _17  and  _20
REMARK   10  A    between atoms: _20  and  _21
REMARK   11  A    between atoms: _23  and  _25
REMARK   12  A    between atoms: _25  and  _26
REMARK   13  A    between atoms: _25  and  _28
REMARK   14  A    between atoms: _28  and  _29
REMARK   15  A    between atoms: _32  and  _34
REMARK   16  A    between atoms: _34  and  _35
REMARK   17  A    between atoms: _34  and  _37
REMARK   18  A    between atoms: _37  and  _38
REMARK   19  A    between atoms: _43  and  _45
REMARK   20  A    between atoms: _45  and  _46
REMARK   21  A    between atoms: _49  and  _51
REMARK   22  A    between atoms: _51  and  _52
REMARK   23  A    between atoms: _51  and  _54
REMARK   24  A    between atoms: _54  and  _55
REMARK   25  A    between atoms: _58  and  _60
REMARK   26  A    between atoms: _60  and  _61
REMARK   27  A    between atoms: _60  and  _63
REMARK   28  A    between atoms: _63  and  _64
REMARK   29  A    between atoms: _67  and  _69
REMARK   30  A    between atoms: _69  and  _70
REMARK   31  A    between atoms: _69  and  _72
REMARK   32  A    between atoms: _72  and  _73
REMARK   33  A    between atoms: _76  and  _78
REMARK   34  A    between atoms: _78  and  _79
REMARK   35  A    between atoms: _82  and  _84
REMARK   36  A    between atoms: _84  and  _85
REMARK   37  A    between atoms: _84  and  _87
REMARK   38  A    between atoms: _87  and  _88
REMARK   39  A    between atoms: _88  and  _89
REMARK   40  A    between atoms: _94  and  _96
REMARK   41  A    between atoms: _96  and  _97
REMARK   42  A    between atoms: _96  and  _99
REMARK   43  A    between atoms: _99  and  _100
REMARK   44  A    between atoms: _103  and  _105
REMARK   45  A    between atoms: _105  and  _106
REMARK   46  A    between atoms: _109  and  _111
REMARK   47  A    between atoms: _111  and  _112
REMARK   48  A    between atoms: _114  and  _116
REMARK   49  A    between atoms: _116  and  _117
REMARK   50  A    between atoms: _116  and  _119
REMARK   51  A    between atoms: _119  and  _120
REMARK   52  A    between atoms: _120  and  _121
REMARK   53  A    between atoms: _121  and  _122
REMARK   54  A    between atoms: _131  and  _133
REMARK   55  A    between atoms: _133  and  _134
REMARK   56  A    between atoms: _136  and  _138
REMARK   57  A    between atoms: _138  and  _139
REMARK   58  A    between atoms: _138  and  _141
REMARK   59  A    between atoms: _141  and  _142
REMARK   60  A    between atoms: _142  and  _143
REMARK   61  A    between atoms: _143  and  _144
REMARK   62  A    between atoms: _153  and  _155
REMARK   63  A    between atoms: _155  and  _156
REMARK   64  A    between atoms: _155  and  _158
REMARK   65  A    between atoms: _158  and  _159
REMARK   66  A    between atoms: _164  and  _166
REMARK   67  A    between atoms: _166  and  _167
REMARK   68  A    between atoms: _169  and  _171
REMARK   69  A    between atoms: _171  and  _172
REMARK   70  A    between atoms: _171  and  _174
REMARK   71  A    between atoms: _174  and  _175
REMARK   72  A    between atoms: _175  and  _176
REMARK   73  A    between atoms: _176  and  _177
REMARK   74  A    between atoms: _186  and  _188
REMARK   75  A    between atoms: _188  and  _189
REMARK   76  A    between atoms: _191  and  _193
REMARK   77  A    between atoms: _193  and  _194
REMARK   78  A    between atoms: _193  and  _196
REMARK   79  A    between atoms: _196  and  _197
REMARK   80  A    between atoms: _207  and  _209
REMARK   81  A    between atoms: _209  and  _210
REMARK   82  A    between atoms: _213  and  _215
REMARK   83  A    between atoms: _215  and  _216
REMARK   84  A    between atoms: _219  and  _221
REMARK   85  A    between atoms: _221  and  _222
REMARK   86  A    between atoms: _221  and  _224
REMARK   87  A    between atoms: _224  and  _225
REMARK   88  A    between atoms: _228  and  _230
REMARK   89  A    between atoms: _230  and  _231
REMARK   90  A    between atoms: _230  and  _233
REMARK   91  A    between atoms: _233  and  _234
REMARK   92  A    between atoms: _234  and  _235
REMARK   93  A    between atoms: _240  and  _242
REMARK   94  A    between atoms: _242  and  _243
REMARK   95  A    between atoms: _242  and  _245
REMARK   96  A    between atoms: _245  and  _246
REMARK   97  A    between atoms: _249  and  _251
REMARK   98  A    between atoms: _251  and  _252
REMARK   99  A    between atoms: _251  and  _254
REMARK  100  A    between atoms: _254  and  _255
REMARK  101  A    between atoms: _258  and  _260
REMARK  102  A    between atoms: _260  and  _261
REMARK  103  A    between atoms: _260  and  _263
REMARK  104  A    between atoms: _263  and  _264
REMARK  105  A    between atoms: _267  and  _269
REMARK  106  A    between atoms: _269  and  _270
REMARK  107  A    between atoms: _269  and  _272
REMARK  108  A    between atoms: _272  and  _273
REMARK  109  A    between atoms: _275  and  _277
REMARK  110  A    between atoms: _277  and  _278
REMARK  111  A    between atoms: _277  and  _280
REMARK  112  A    between atoms: _283  and  _285
REMARK  113  A    between atoms: _285  and  _286
REMARK  114  A    between atoms: _285  and  _288
REMARK  115  A    between atoms: _288  and  _289
REMARK  116  A    between atoms: _289  and  _290
REMARK  117  A    between atoms: _290  and  _291
REMARK  118  A    between atoms: _291  and  _292
REMARK  119  A    between atoms: _296  and  _298
REMARK  120  A    between atoms: _298  and  _299
REMARK  121  A    between atoms: _298  and  _301
REMARK  122  A    between atoms: _301  and  _302
REMARK  123  A    between atoms: _313  and  _314
REMARK  124  A    between atoms: _319  and  _321
REMARK  125  A    between atoms: _321  and  _322
REMARK  126  A    between atoms: _321  and  _324
REMARK  127  A    between atoms: _324  and  _325
REMARK  128  A    between atoms: _330  and  _332
REMARK  129  A    between atoms: _332  and  _333
REMARK  130  A    between atoms: _332  and  _335
REMARK  131  A    between atoms: _335  and  _336
REMARK  132  A    between atoms: _339  and  _341
REMARK  133  A    between atoms: _341  and  _342
REMARK  134  A    between atoms: _341  and  _344
REMARK  135  A    between atoms: _347  and  _349
REMARK  136  A    between atoms: _349  and  _350
REMARK  137  A    between atoms: _352  and  _354
REMARK  138  A    between atoms: _354  and  _355
REMARK  139  A    between atoms: _354  and  _357
REMARK  140  A    between atoms: _357  and  _358
REMARK  141  A    between atoms: _358  and  _359
REMARK  142  A    between atoms: _359  and  _360
REMARK  143  A    between atoms: _360  and  _361
REMARK  144  A    between atoms: _365  and  _367
REMARK  145  A    between atoms: _367  and  _368
REMARK  146  A    between atoms: _367  and  _370
REMARK  147  A    between atoms: _370  and  _371
REMARK  148  A    between atoms: _374  and  _376
REMARK  149  A    between atoms: _376  and  _377
REMARK  150  A    between atoms: _380  and  _382
REMARK  151  A    between atoms: _382  and  _383
REMARK  152  A    between atoms: _385  and  _387
REMARK  153  A    between atoms: _387  and  _388
REMARK  154  A    between atoms: _387  and  _390
REMARK  155  A    between atoms: _390  and  _391
REMARK  156  A    between atoms: _394  and  _396
REMARK  157  A    between atoms: _396  and  _397
REMARK  158  A    between atoms: _396  and  _399
REMARK  159  A    between atoms: _399  and  _400
REMARK  160  A    between atoms: _403  and  _405
REMARK  161  A    between atoms: _405  and  _406
REMARK  162  A    between atoms: _409  and  _411
REMARK  163  A    between atoms: _411  and  _412
REMARK  164  A    between atoms: _411  and  _414
REMARK  165  A    between atoms: _414  and  _415
REMARK  166  A    between atoms: _415  and  _416
REMARK  167  A    between atoms: _419  and  _421
REMARK  168  A    between atoms: _421  and  _422
REMARK  169  A    between atoms: _421  and  _424
REMARK  170  A    between atoms: _427  and  _429
REMARK  171  A    between atoms: _429  and  _430
REMARK  172  A    between atoms: _429  and  _432
REMARK  173  A    between atoms: _432  and  _433
REMARK  174  A    between atoms: _436  and  _438
REMARK  175  A    between atoms: _438  and  _439
REMARK  176  A    between atoms: _441  and  _443
REMARK  177  A    between atoms: _443  and  _444
REMARK  178  A    between atoms: _443  and  _446
REMARK  179  A    between atoms: _449  and  _451
REMARK  180  A    between atoms: _451  and  _452
REMARK  181  A    between atoms: _454  and  _456
REMARK  182  A    between atoms: _456  and  _457
REMARK  183  A    between atoms: _456  and  _459
REMARK  184  A    between atoms: _459  and  _460
REMARK  185  A    between atoms: _463  and  _465
REMARK  186  A    between atoms: _465  and  _466
REMARK  187  A    between atoms: _465  and  _468
REMARK  188  A    between atoms: _468  and  _469
REMARK  189  A    between atoms: _474  and  _476
REMARK  190  A    between atoms: _476  and  _477
REMARK  191  A    between atoms: _476  and  _479
REMARK  192  A    between atoms: _482  and  _484
REMARK  193  A    between atoms: _484  and  _485
REMARK  194  A    between atoms: _484  and  _487
REMARK  195  A    between atoms: _487  and  _488
REMARK  196  A    between atoms: _488  and  _489
REMARK  197  A    between atoms: _494  and  _496
REMARK  198  A    between atoms: _496  and  _497
REMARK  199  A    between atoms: _501  and  _502
REMARK  200  A    between atoms: _507  and  _509
REMARK  201  A    between atoms: _509  and  _510
REMARK  202  A    between atoms: _509  and  _512
REMARK  203  A    between atoms: _512  and  _513
REMARK  204  A    between atoms: _513  and  _514
REMARK  205  A    between atoms: _517  and  _519
REMARK  206  A    between atoms: _519  and  _520
REMARK  207  A    between atoms: _519  and  _522
REMARK  208  A    between atoms: _525  and  _527
REMARK  209  A    between atoms: _527  and  _528
REMARK  210  A    between atoms: _527  and  _530
REMARK  211  A    between atoms: _530  and  _531
REMARK  212  A    between atoms: _535  and  _536
REMARK  213  A    between atoms: _541  and  _543
REMARK  214  A    between atoms: _543  and  _544
REMARK  215  A    between atoms: _543  and  _546
REMARK  216  A    between atoms: _546  and  _547
REMARK  217  A    between atoms: _550  and  _552
REMARK  218  A    between atoms: _552  and  _553
REMARK  219  A    between atoms: _556  and  _558
REMARK  220  A    between atoms: _558  and  _559
REMARK  221  A    between atoms: _558  and  _561
REMARK  222  A    between atoms: _561  and  _562
REMARK  223  A    between atoms: _565  and  _567
REMARK  224  A    between atoms: _567  and  _568
REMARK  225  A    between atoms: _567  and  _570
REMARK  226  A    between atoms: _570  and  _571
REMARK  227  A    between atoms: _573  and  _575
REMARK  228  A    between atoms: _575  and  _576
REMARK  229  A    between atoms: _578  and  _580
REMARK  230  A    between atoms: _580  and  _581
REMARK  231  A    between atoms: _580  and  _583
REMARK  232  A    between atoms: _583  and  _584
REMARK  233  A    between atoms: _587  and  _589
REMARK  234  A    between atoms: _589  and  _590
REMARK  235  A    between atoms: _589  and  _592
REMARK                            x       y       z     vdW  Elec       q    Type
REMARK                         _______ _______ _______ _____ _____    ______ ____
ROOT
ATOM      1  O   HOH     1     -11.057   2.022  15.991  0.00  0.00    +0.000 OA
ENDROOT
TORSDOF 0
REMARK  Name = ../refined-set-2016/4xtv/4xtv_pocket.pdb
REMARK  235 active torsions:
REMARK  status: ('A' for Active; 'I' for Inactive)
REMARK    1  A    between atoms: _1  and  _3
REMARK    2  A    between atoms: _3  and  _4
REMARK    3  A    between atoms: _3  and  _6
REMARK    4  A    between atoms: _6  and  _7
REMARK    5  A    between atoms: _10  and  _12
REMARK    6  A    between atoms: _12  and  _13
REMARK    7  A    between atoms: _15  and  _17
REMARK    8  A    between atoms: _17  and  _18
REMARK    9  A    between atoms: _17  and  _20
REMARK   10  A    between atoms: _20  and  _21
REMARK   11  A    between atoms: _23  and  _25
REMARK   12  A    between atoms: _25  and  _26
REMARK   13  A    between atoms: _25  and  _28
REMARK   14  A    between atoms: _28  and  _29
REMARK   15  A    between atoms: _32  and  _34
REMARK   16  A    between atoms: _34  and  _35
REMARK   17  A    between atoms: _34  and  _37
REMARK   18  A    between atoms: _37  and  _38
REMARK   19  A    between atoms: _43  and  _45
REMARK   20  A    between atoms: _45  and  _46
REMARK   21  A    between atoms: _49  and  _51
REMARK   22  A    between atoms: _51  and  _52
REMARK   23  A    between atoms: _51  and  _54
REMARK   24  A    between atoms: _54  and  _55
REMARK   25  A    between atoms: _58  and  _60
REMARK   26  A    between atoms: _60  and  _61
REMARK   27  A    between atoms: _60  and  _63
REMARK   28  A    between atoms: _63  and  _64
REMARK   29  A    between atoms: _67  and  _69
REMARK   30  A    between atoms: _69  and  _70
REMARK   31  A    between atoms: _69  and  _72
REMARK   32  A    between atoms: _72  and  _73
REMARK   33  A    between atoms: _76  and  _78
REMARK   34  A    between atoms: _78  and  _79
REMARK   35  A    between atoms: _82  and  _84
REMARK   36  A    between atoms: _84  and  _85
REMARK   37  A    between atoms: _84  and  _87
REMARK   38  A    between atoms: _87  and  _88
REMARK   39  A    between atoms: _88  and  _89
REMARK   40  A    between atoms: _94  and  _96
REMARK   41  A    between atoms: _96  and  _97
REMARK   42  A    between atoms: _96  and  _99
REMARK   43  A    between atoms: _99  and  _100
REMARK   44  A    between atoms: _103  and  _105
REMARK   45  A    between atoms: _105  and  _106
REMARK   46  A    between atoms: _109  and  _111
REMARK   47  A    between atoms: _111  and  _112
REMARK   48  A    between atoms: _114  and  _116
REMARK   49  A    between atoms: _116  and  _117
REMARK   50  A    between atoms: _116  and  _119
REMARK   51  A    between atoms: _119  and  _120
REMARK   52  A    between atoms: _120  and  _121
REMARK   53  A    between atoms: _121  and  _122
REMARK   54  A    between atoms: _131  and  _133
REMARK   55  A    between atoms: _133  and  _134
REMARK   56  A    between atoms: _136  and  _138
REMARK   57  A    between atoms: _138  and  _139
REMARK   58  A    between atoms: _138  and  _141
REMARK   59  A    between atoms: _141  and  _142
REMARK   60  A    between atoms: _142  and  _143
REMARK   61  A    between atoms: _143  and  _144
REMARK   62  A    between atoms: _153  and  _155
REMARK   63  A    between atoms: _155  and  _156
REMARK   64  A    between atoms: _155  and  _158
REMARK   65  A    between atoms: _158  and  _159
REMARK   66  A    between atoms: _164  and  _166
REMARK   67  A    between atoms: _166  and  _167
REMARK   68  A    between atoms: _169  and  _171
REMARK   69  A    between atoms: _171  and  _172
REMARK   70  A    between atoms: _171  and  _174
REMARK   71  A    between atoms: _174  and  _175
REMARK   72  A    between atoms: _175  and  _176
REMARK   73  A    between atoms: _176  and  _177
REMARK   74  A    between atoms: _186  and  _188
REMARK   75  A    between atoms: _188  and  _189
REMARK   76  A    between atoms: _191  and  _193
REMARK   77  A    between atoms: _193  and  _194
REMARK   78  A    between atoms: _193  and  _196
REMARK   79  A    between atoms: _196  and  _197
REMARK   80  A    between atoms: _207  and  _209
REMARK   81  A    between atoms: _209  and  _210
REMARK   82  A    between atoms: _213  and  _215
REMARK   83  A    between atoms: _215  and  _216
REMARK   84  A    between atoms: _219  and  _221
REMARK   85  A    between atoms: _221  and  _222
REMARK   86  A    between atoms: _221  and  _224
REMARK   87  A    between atoms: _224  and  _225
REMARK   88  A    between atoms: _228  and  _230
REMARK   89  A    between atoms: _230  and  _231
REMARK   90  A    between atoms: _230  and  _233
REMARK   91  A    between atoms: _233  and  _234
REMARK   92  A    between atoms: _234  and  _235
REMARK   93  A    between atoms: _240  and  _242
REMARK   94  A    between atoms: _242  and  _243
REMARK   95  A    between atoms: _242  and  _245
REMARK   96  A    between atoms: _245  and  _246
REMARK   97  A    between atoms: _249  and  _251
REMARK   98  A    between atoms: _251  and  _252
REMARK   99  A    between atoms: _251  and  _254
REMARK  100  A    between atoms: _254  and  _255
REMARK  101  A    between atoms: _258  and  _260
REMARK  102  A    between atoms: _260  and  _261
REMARK  103  A    between atoms: _260  and  _263
REMARK  104  A    between atoms: _263  and  _264
REMARK  105  A    between atoms: _267  and  _269
REMARK  106  A    between atoms: _269  and  _270
REMARK  107  A    between atoms: _269  and  _272
REMARK  108  A    between atoms: _272  and  _273
REMARK  109  A    between atoms: _275  and  _277
REMARK  110  A    between atoms: _277  and  _278
REMARK  111  A    between atoms: _277  and  _280
REMARK  112  A    between atoms: _283  and  _285
REMARK  113  A    between atoms: _285  and  _286
REMARK  114  A    between atoms: _285  and  _288
REMARK  115  A    between atoms: _288  and  _289
REMARK  116  A    between atoms: _289  and  _290
REMARK  117  A    between atoms: _290  and  _291
REMARK  118  A    between atoms: _291  and  _292
REMARK  119  A    between atoms: _296  and  _298
REMARK  120  A    between atoms: _298  and  _299
REMARK  121  A    between atoms: _298  and  _301
REMARK  122  A    between atoms: _301  and  _302
REMARK  123  A    between atoms: _313  and  _314
REMARK  124  A    between atoms: _319  and  _321
REMARK  125  A    between atoms: _321  and  _322
REMARK  126  A    between atoms: _321  and  _324
REMARK  127  A    between atoms: _324  and  _325
REMARK  128  A    between atoms: _330  and  _332
REMARK  129  A    between atoms: _332  and  _333
REMARK  130  A    between atoms: _332  and  _335
REMARK  131  A    between atoms: _335  and  _336
REMARK  132  A    between atoms: _339  and  _341
REMARK  133  A    between atoms: _341  and  _342
REMARK  134  A    between atoms: _341  and  _344
REMARK  135  A    between atoms: _347  and  _349
REMARK  136  A    between atoms: _349  and  _350
REMARK  137  A    between atoms: _352  and  _354
REMARK  138  A    between atoms: _354  and  _355
REMARK  139  A    between atoms: _354  and  _357
REMARK  140  A    between atoms: _357  and  _358
REMARK  141  A    between atoms: _358  and  _359
REMARK  142  A    between atoms: _359  and  _360
REMARK  143  A    between atoms: _360  and  _361
REMARK  144  A    between atoms: _365  and  _367
REMARK  145  A    between atoms: _367  and  _368
REMARK  146  A    between atoms: _367  and  _370
REMARK  147  A    between atoms: _370  and  _371
REMARK  148  A    between atoms: _374  and  _376
REMARK  149  A    between atoms: _376  and  _377
REMARK  150  A    between atoms: _380  and  _382
REMARK  151  A    between atoms: _382  and  _383
REMARK  152  A    between atoms: _385  and  _387
REMARK  153  A    between atoms: _387  and  _388
REMARK  154  A    between atoms: _387  and  _390
REMARK  155  A    between atoms: _390  and  _391
REMARK  156  A    between atoms: _394  and  _396
REMARK  157  A    between atoms: _396  and  _397
REMARK  158  A    between atoms: _396  and  _399
REMARK  159  A    between atoms: _399  and  _400
REMARK  160  A    between atoms: _403  and  _405
REMARK  161  A    between atoms: _405  and  _406
REMARK  162  A    between atoms: _409  and  _411
REMARK  163  A    between atoms: _411  and  _412
REMARK  164  A    between atoms: _411  and  _414
REMARK  165  A    between atoms: _414  and  _415
REMARK  166  A    between atoms: _415  and  _416
REMARK  167  A    between atoms: _419  and  _421
REMARK  168  A    between atoms: _421  and  _422
REMARK  169  A    between atoms: _421  and  _424
REMARK  170  A    between atoms: _427  and  _429
REMARK  171  A    between atoms: _429  and  _430
REMARK  172  A    between atoms: _429  and  _432
REMARK  173  A    between atoms: _432  and  _433
REMARK  174  A    between atoms: _436  and  _438
REMARK  175  A    between atoms: _438  and  _439
REMARK  176  A    between atoms: _441  and  _443
REMARK  177  A    between atoms: _443  and  _444
REMARK  178  A    between atoms: _443  and  _446
REMARK  179  A    between atoms: _449  and  _451
REMARK  180  A    between atoms: _451  and  _452
REMARK  181  A    between atoms: _454  and  _456
REMARK  182  A    between atoms: _456  and  _457
REMARK  183  A    between atoms: _456  and  _459
REMARK  184  A    between atoms: _459  and  _460
REMARK  185  A    between atoms: _463  and  _465
REMARK  186  A    between atoms: _465  and  _466
REMARK  187  A    between atoms: _465  and  _468
REMARK  188  A    between atoms: _468  and  _469
REMARK  189  A    between atoms: _474  and  _476
REMARK  190  A    between atoms: _476  and  _477
REMARK  191  A    between atoms: _476  and  _479
REMARK  192  A    between atoms: _482  and  _484
REMARK  193  A    between atoms: _484  and  _485
REMARK  194  A    between atoms: _484  and  _487
REMARK  195  A    between atoms: _487  and  _488
REMARK  196  A    between atoms: _488  and  _489
REMARK  197  A    between atoms: _494  and  _496
REMARK  198  A    between atoms: _496  and  _497
REMARK  199  A    between atoms: _501  and  _502
REMARK  200  A    between atoms: _507  and  _509
REMARK  201  A    between atoms: _509  and  _510
REMARK  202  A    between atoms: _509  and  _512
REMARK  203  A    between atoms: _512  and  _513
REMARK  204  A    between atoms: _513  and  _514
REMARK  205  A    between atoms: _517  and  _519
REMARK  206  A    between atoms: _519  and  _520
REMARK  207  A    between atoms: _519  and  _522
REMARK  208  A    between atoms: _525  and  _527
REMARK  209  A    between atoms: _527  and  _528
REMARK  210  A    between atoms: _527  and  _530
REMARK  211  A    between atoms: _530  and  _531
REMARK  212  A    between atoms: _535  and  _536
REMARK  213  A    between atoms: _541  and  _543
REMARK  214  A    between atoms: _543  and  _544
REMARK  215  A    between atoms: _543  and  _546
REMARK  216  A    between atoms: _546  and  _547
REMARK  217  A    between atoms: _550  and  _552
REMARK  218  A    between atoms: _552  and  _553
REMARK  219  A    between atoms: _556  and  _558
REMARK  220  A    between atoms: _558  and  _559
REMARK  221  A    between atoms: _558  and  _561
REMARK  222  A    between atoms: _561  and  _562
REMARK  223  A    between atoms: _565  and  _567
REMARK  224  A    between atoms: _567  and  _568
REMARK  225  A    between atoms: _567  and  _570
REMARK  226  A    between atoms: _570  and  _571
REMARK  227  A    between atoms: _573  and  _575
REMARK  228  A    between atoms: _575  and  _576
REMARK  229  A    between atoms: _578  and  _580
REMARK  230  A    between atoms: _580  and  _581
REMARK  231  A    between atoms: _580  and  _583
REMARK  232  A    between atoms: _583  and  _584
REMARK  233  A    between atoms: _587  and  _589
REMARK  234  A    between atoms: _589  and  _590
REMARK  235  A    between atoms: _589  and  _592
REMARK                            x       y       z     vdW  Elec       q    Type
REMARK                         _______ _______ _______ _____ _____    ______ ____
ROOT
ATOM      1  O   HOH     1       3.404  -2.081  13.521  0.00  0.00    +0.000 OA
ENDROOT
TORSDOF 0
REMARK  Name = ../refined-set-2016/4xtv/4xtv_pocket.pdb
REMARK  235 active torsions:
REMARK  status: ('A' for Active; 'I' for Inactive)
REMARK    1  A    between atoms: _1  and  _3
REMARK    2  A    between atoms: _3  and  _4
REMARK    3  A    between atoms: _3  and  _6
REMARK    4  A    between atoms: _6  and  _7
REMARK    5  A    between atoms: _10  and  _12
REMARK    6  A    between atoms: _12  and  _13
REMARK    7  A    between atoms: _15  and  _17
REMARK    8  A    between atoms: _17  and  _18
REMARK    9  A    between atoms: _17  and  _20
REMARK   10  A    between atoms: _20  and  _21
REMARK   11  A    between atoms: _23  and  _25
REMARK   12  A    between atoms: _25  and  _26
REMARK   13  A    between atoms: _25  and  _28
REMARK   14  A    between atoms: _28  and  _29
REMARK   15  A    between atoms: _32  and  _34
REMARK   16  A    between atoms: _34  and  _35
REMARK   17  A    between atoms: _34  and  _37
REMARK   18  A    between atoms: _37  and  _38
REMARK   19  A    between atoms: _43  and  _45
REMARK   20  A    between atoms: _45  and  _46
REMARK   21  A    between atoms: _49  and  _51
REMARK   22  A    between atoms: _51  and  _52
REMARK   23  A    between atoms: _51  and  _54
REMARK   24  A    between atoms: _54  and  _55
REMARK   25  A    between atoms: _58  and  _60
REMARK   26  A    between atoms: _60  and  _61
REMARK   27  A    between atoms: _60  and  _63
REMARK   28  A    between atoms: _63  and  _64
REMARK   29  A    between atoms: _67  and  _69
REMARK   30  A    between atoms: _69  and  _70
REMARK   31  A    between atoms: _69  and  _72
REMARK   32  A    between atoms: _72  and  _73
REMARK   33  A    between atoms: _76  and  _78
REMARK   34  A    between atoms: _78  and  _79
REMARK   35  A    between atoms: _82  and  _84
REMARK   36  A    between atoms: _84  and  _85
REMARK   37  A    between atoms: _84  and  _87
REMARK   38  A    between atoms: _87  and  _88
REMARK   39  A    between atoms: _88  and  _89
REMARK   40  A    between atoms: _94  and  _96
REMARK   41  A    between atoms: _96  and  _97
REMARK   42  A    between atoms: _96  and  _99
REMARK   43  A    between atoms: _99  and  _100
REMARK   44  A    between atoms: _103  and  _105
REMARK   45  A    between atoms: _105  and  _106
REMARK   46  A    between atoms: _109  and  _111
REMARK   47  A    between atoms: _111  and  _112
REMARK   48  A    between atoms: _114  and  _116
REMARK   49  A    between atoms: _116  and  _117
REMARK   50  A    between atoms: _116  and  _119
REMARK   51  A    between atoms: _119  and  _120
REMARK   52  A    between atoms: _120  and  _121
REMARK   53  A    between atoms: _121  and  _122
REMARK   54  A    between atoms: _131  and  _133
REMARK   55  A    between atoms: _133  and  _134
REMARK   56  A    between atoms: _136  and  _138
REMARK   57  A    between atoms: _138  and  _139
REMARK   58  A    between atoms: _138  and  _141
REMARK   59  A    between atoms: _141  and  _142
REMARK   60  A    between atoms: _142  and  _143
REMARK   61  A    between atoms: _143  and  _144
REMARK   62  A    between atoms: _153  and  _155
REMARK   63  A    between atoms: _155  and  _156
REMARK   64  A    between atoms: _155  and  _158
REMARK   65  A    between atoms: _158  and  _159
REMARK   66  A    between atoms: _164  and  _166
REMARK   67  A    between atoms: _166  and  _167
REMARK   68  A    between atoms: _169  and  _171
REMARK   69  A    between atoms: _171  and  _172
REMARK   70  A    between atoms: _171  and  _174
REMARK   71  A    between atoms: _174  and  _175
REMARK   72  A    between atoms: _175  and  _176
REMARK   73  A    between atoms: _176  and  _177
REMARK   74  A    between atoms: _186  and  _188
REMARK   75  A    between atoms: _188  and  _189
REMARK   76  A    between atoms: _191  and  _193
REMARK   77  A    between atoms: _193  and  _194
REMARK   78  A    between atoms: _193  and  _196
REMARK   79  A    between atoms: _196  and  _197
REMARK   80  A    between atoms: _207  and  _209
REMARK   81  A    between atoms: _209  and  _210
REMARK   82  A    between atoms: _213  and  _215
REMARK   83  A    between atoms: _215  and  _216
REMARK   84  A    between atoms: _219  and  _221
REMARK   85  A    between atoms: _221  and  _222
REMARK   86  A    between atoms: _221  and  _224
REMARK   87  A    between atoms: _224  and  _225
REMARK   88  A    between atoms: _228  and  _230
REMARK   89  A    between atoms: _230  and  _231
REMARK   90  A    between atoms: _230  and  _233
REMARK   91  A    between atoms: _233  and  _234
REMARK   92  A    between atoms: _234  and  _235
REMARK   93  A    between atoms: _240  and  _242
REMARK   94  A    between atoms: _242  and  _243
REMARK   95  A    between atoms: _242  and  _245
REMARK   96  A    between atoms: _245  and  _246
REMARK   97  A    between atoms: _249  and  _251
REMARK   98  A    between atoms: _251  and  _252
REMARK   99  A    between atoms: _251  and  _254
REMARK  100  A    between atoms: _254  and  _255
REMARK  101  A    between atoms: _258  and  _260
REMARK  102  A    between atoms: _260  and  _261
REMARK  103  A    between atoms: _260  and  _263
REMARK  104  A    between atoms: _263  and  _264
REMARK  105  A    between atoms: _267  and  _269
REMARK  106  A    between atoms: _269  and  _270
REMARK  107  A    between atoms: _269  and  _272
REMARK  108  A    between atoms: _272  and  _273
REMARK  109  A    between atoms: _275  and  _277
REMARK  110  A    between atoms: _277  and  _278
REMARK  111  A    between atoms: _277  and  _280
REMARK  112  A    between atoms: _283  and  _285
REMARK  113  A    between atoms: _285  and  _286
REMARK  114  A    between atoms: _285  and  _288
REMARK  115  A    between atoms: _288  and  _289
REMARK  116  A    between atoms: _289  and  _290
REMARK  117  A    between atoms: _290  and  _291
REMARK  118  A    between atoms: _291  and  _292
REMARK  119  A    between atoms: _296  and  _298
REMARK  120  A    between atoms: _298  and  _299
REMARK  121  A    between atoms: _298  and  _301
REMARK  122  A    between atoms: _301  and  _302
REMARK  123  A    between atoms: _313  and  _314
REMARK  124  A    between atoms: _319  and  _321
REMARK  125  A    between atoms: _321  and  _322
REMARK  126  A    between atoms: _321  and  _324
REMARK  127  A    between atoms: _324  and  _325
REMARK  128  A    between atoms: _330  and  _332
REMARK  129  A    between atoms: _332  and  _333
REMARK  130  A    between atoms: _332  and  _335
REMARK  131  A    between atoms: _335  and  _336
REMARK  132  A    between atoms: _339  and  _341
REMARK  133  A    between atoms: _341  and  _342
REMARK  134  A    between atoms: _341  and  _344
REMARK  135  A    between atoms: _347  and  _349
REMARK  136  A    between atoms: _349  and  _350
REMARK  137  A    between atoms: _352  and  _354
REMARK  138  A    between atoms: _354  and  _355
REMARK  139  A    between atoms: _354  and  _357
REMARK  140  A    between atoms: _357  and  _358
REMARK  141  A    between atoms: _358  and  _359
REMARK  142  A    between atoms: _359  and  _360
REMARK  143  A    between atoms: _360  and  _361
REMARK  144  A    between atoms: _365  and  _367
REMARK  145  A    between atoms: _367  and  _368
REMARK  146  A    between atoms: _367  and  _370
REMARK  147  A    between atoms: _370  and  _371
REMARK  148  A    between atoms: _374  and  _376
REMARK  149  A    between atoms: _376  and  _377
REMARK  150  A    between atoms: _380  and  _382
REMARK  151  A    between atoms: _382  and  _383
REMARK  152  A    between atoms: _385  and  _387
REMARK  153  A    between atoms: _387  and  _388
REMARK  154  A    between atoms: _387  and  _390
REMARK  155  A    between atoms: _390  and  _391
REMARK  156  A    between atoms: _394  and  _396
REMARK  157  A    between atoms: _396  and  _397
REMARK  158  A    between atoms: _396  and  _399
REMARK  159  A    between atoms: _399  and  _400
REMARK  160  A    between atoms: _403  and  _405
REMARK  161  A    between atoms: _405  and  _406
REMARK  162  A    between atoms: _409  and  _411
REMARK  163  A    between atoms: _411  and  _412
REMARK  164  A    between atoms: _411  and  _414
REMARK  165  A    between atoms: _414  and  _415
REMARK  166  A    between atoms: _415  and  _416
REMARK  167  A    between atoms: _419  and  _421
REMARK  168  A    between atoms: _421  and  _422
REMARK  169  A    between atoms: _421  and  _424
REMARK  170  A    between atoms: _427  and  _429
REMARK  171  A    between atoms: _429  and  _430
REMARK  172  A    between atoms: _429  and  _432
REMARK  173  A    between atoms: _432  and  _433
REMARK  174  A    between atoms: _436  and  _438
REMARK  175  A    between atoms: _438  and  _439
REMARK  176  A    between atoms: _441  and  _443
REMARK  177  A    between atoms: _443  and  _444
REMARK  178  A    between atoms: _443  and  _446
REMARK  179  A    between atoms: _449  and  _451
REMARK  180  A    between atoms: _451  and  _452
REMARK  181  A    between atoms: _454  and  _456
REMARK  182  A    between atoms: _456  and  _457
REMARK  183  A    between atoms: _456  and  _459
REMARK  184  A    between atoms: _459  and  _460
REMARK  185  A    between atoms: _463  and  _465
REMARK  186  A    between atoms: _465  and  _466
REMARK  187  A    between atoms: _465  and  _468
REMARK  188  A    between atoms: _468  and  _469
REMARK  189  A    between atoms: _474  and  _476
REMARK  190  A    between atoms: _476  and  _477
REMARK  191  A    between atoms: _476  and  _479
REMARK  192  A    between atoms: _482  and  _484
REMARK  193  A    between atoms: _484  and  _485
REMARK  194  A    between atoms: _484  and  _487
REMARK  195  A    between atoms: _487  and  _488
REMARK  196  A    between atoms: _488  and  _489
REMARK  197  A    between atoms: _494  and  _496
REMARK  198  A    between atoms: _496  and  _497
REMARK  199  A    between atoms: _501  and  _502
REMARK  200  A    between atoms: _507  and  _509
REMARK  201  A    between atoms: _509  and  _510
REMARK  202  A    between atoms: _509  and  _512
REMARK  203  A    between atoms: _512  and  _513
REMARK  204  A    between atoms: _513  and  _514
REMARK  205  A    between atoms: _517  and  _519
REMARK  206  A    between atoms: _519  and  _520
REMARK  207  A    between atoms: _519  and  _522
REMARK  208  A    between atoms: _525  and  _527
REMARK  209  A    between atoms: _527  and  _528
REMARK  210  A    between atoms: _527  and  _530
REMARK  211  A    between atoms: _530  and  _531
REMARK  212  A    between atoms: _535  and  _536
REMARK  213  A    between atoms: _541  and  _543
REMARK  214  A    between atoms: _543  and  _544
REMARK  215  A    between atoms: _543  and  _546
REMARK  216  A    between atoms: _546  and  _547
REMARK  217  A    between atoms: _550  and  _552
REMARK  218  A    between atoms: _552  and  _553
REMARK  219  A    between atoms: _556  and  _558
REMARK  220  A    between atoms: _558  and  _559
REMARK  221  A    between atoms: _558  and  _561
REMARK  222  A    between atoms: _561  and  _562
REMARK  223  A    between atoms: _565  and  _567
REMARK  224  A    between atoms: _567  and  _568
REMARK  225  A    between atoms: _567  and  _570
REMARK  226  A    between atoms: _570  and  _571
REMARK  227  A    between atoms: _573  and  _575
REMARK  228  A    between atoms: _575  and  _576
REMARK  229  A    between atoms: _578  and  _580
REMARK  230  A    between atoms: _580  and  _581
REMARK  231  A    between atoms: _580  and  _583
REMARK  232  A    between atoms: _583  and  _584
REMARK  233  A    between atoms: _587  and  _589
REMARK  234  A    between atoms: _589  and  _590
REMARK  235  A    between atoms: _589  and  _592
REMARK                            x       y       z     vdW  Elec       q    Type
REMARK                         _______ _______ _______ _____ _____    ______ ____
ROOT
ATOM      1  O   HOH     1      -9.112  -5.517   0.866  0.00  0.00    +0.000 OA
ENDROOT
TORSDOF 0
REMARK  Name = ../refined-set-2016/4xtv/4xtv_pocket.pdb
REMARK  235 active torsions:
REMARK  status: ('A' for Active; 'I' for Inactive)
REMARK    1  A    between atoms: _1  and  _3
REMARK    2  A    between atoms: _3  and  _4
REMARK    3  A    between atoms: _3  and  _6
REMARK    4  A    between atoms: _6  and  _7
REMARK    5  A    between atoms: _10  and  _12
REMARK    6  A    between atoms: _12  and  _13
REMARK    7  A    between atoms: _15  and  _17
REMARK    8  A    between atoms: _17  and  _18
REMARK    9  A    between atoms: _17  and  _20
REMARK   10  A    between atoms: _20  and  _21
REMARK   11  A    between atoms: _23  and  _25
REMARK   12  A    between atoms: _25  and  _26
REMARK   13  A    between atoms: _25  and  _28
REMARK   14  A    between atoms: _28  and  _29
REMARK   15  A    between atoms: _32  and  _34
REMARK   16  A    between atoms: _34  and  _35
REMARK   17  A    between atoms: _34  and  _37
REMARK   18  A    between atoms: _37  and  _38
REMARK   19  A    between atoms: _43  and  _45
REMARK   20  A    between atoms: _45  and  _46
REMARK   21  A    between atoms: _49  and  _51
REMARK   22  A    between atoms: _51  and  _52
REMARK   23  A    between atoms: _51  and  _54
REMARK   24  A    between atoms: _54  and  _55
REMARK   25  A    between atoms: _58  and  _60
REMARK   26  A    between atoms: _60  and  _61
REMARK   27  A    between atoms: _60  and  _63
REMARK   28  A    between atoms: _63  and  _64
REMARK   29  A    between atoms: _67  and  _69
REMARK   30  A    between atoms: _69  and  _70
REMARK   31  A    between atoms: _69  and  _72
REMARK   32  A    between atoms: _72  and  _73
REMARK   33  A    between atoms: _76  and  _78
REMARK   34  A    between atoms: _78  and  _79
REMARK   35  A    between atoms: _82  and  _84
REMARK   36  A    between atoms: _84  and  _85
REMARK   37  A    between atoms: _84  and  _87
REMARK   38  A    between atoms: _87  and  _88
REMARK   39  A    between atoms: _88  and  _89
REMARK   40  A    between atoms: _94  and  _96
REMARK   41  A    between atoms: _96  and  _97
REMARK   42  A    between atoms: _96  and  _99
REMARK   43  A    between atoms: _99  and  _100
REMARK   44  A    between atoms: _103  and  _105
REMARK   45  A    between atoms: _105  and  _106
REMARK   46  A    between atoms: _109  and  _111
REMARK   47  A    between atoms: _111  and  _112
REMARK   48  A    between atoms: _114  and  _116
REMARK   49  A    between atoms: _116  and  _117
REMARK   50  A    between atoms: _116  and  _119
REMARK   51  A    between atoms: _119  and  _120
REMARK   52  A    between atoms: _120  and  _121
REMARK   53  A    between atoms: _121  and  _122
REMARK   54  A    between atoms: _131  and  _133
REMARK   55  A    between atoms: _133  and  _134
REMARK   56  A    between atoms: _136  and  _138
REMARK   57  A    between atoms: _138  and  _139
REMARK   58  A    between atoms: _138  and  _141
REMARK   59  A    between atoms: _141  and  _142
REMARK   60  A    between atoms: _142  and  _143
REMARK   61  A    between atoms: _143  and  _144
REMARK   62  A    between atoms: _153  and  _155
REMARK   63  A    between atoms: _155  and  _156
REMARK   64  A    between atoms: _155  and  _158
REMARK   65  A    between atoms: _158  and  _159
REMARK   66  A    between atoms: _164  and  _166
REMARK   67  A    between atoms: _166  and  _167
REMARK   68  A    between atoms: _169  and  _171
REMARK   69  A    between atoms: _171  and  _172
REMARK   70  A    between atoms: _171  and  _174
REMARK   71  A    between atoms: _174  and  _175
REMARK   72  A    between atoms: _175  and  _176
REMARK   73  A    between atoms: _176  and  _177
REMARK   74  A    between atoms: _186  and  _188
REMARK   75  A    between atoms: _188  and  _189
REMARK   76  A    between atoms: _191  and  _193
REMARK   77  A    between atoms: _193  and  _194
REMARK   78  A    between atoms: _193  and  _196
REMARK   79  A    between atoms: _196  and  _197
REMARK   80  A    between atoms: _207  and  _209
REMARK   81  A    between atoms: _209  and  _210
REMARK   82  A    between atoms: _213  and  _215
REMARK   83  A    between atoms: _215  and  _216
REMARK   84  A    between atoms: _219  and  _221
REMARK   85  A    between atoms: _221  and  _222
REMARK   86  A    between atoms: _221  and  _224
REMARK   87  A    between atoms: _224  and  _225
REMARK   88  A    between atoms: _228  and  _230
REMARK   89  A    between atoms: _230  and  _231
REMARK   90  A    between atoms: _230  and  _233
REMARK   91  A    between atoms: _233  and  _234
REMARK   92  A    between atoms: _234  and  _235
REMARK   93  A    between atoms: _240  and  _242
REMARK   94  A    between atoms: _242  and  _243
REMARK   95  A    between atoms: _242  and  _245
REMARK   96  A    between atoms: _245  and  _246
REMARK   97  A    between atoms: _249  and  _251
REMARK   98  A    between atoms: _251  and  _252
REMARK   99  A    between atoms: _251  and  _254
REMARK  100  A    between atoms: _254  and  _255
REMARK  101  A    between atoms: _258  and  _260
REMARK  102  A    between atoms: _260  and  _261
REMARK  103  A    between atoms: _260  and  _263
REMARK  104  A    between atoms: _263  and  _264
REMARK  105  A    between atoms: _267  and  _269
REMARK  106  A    between atoms: _269  and  _270
REMARK  107  A    between atoms: _269  and  _272
REMARK  108  A    between atoms: _272  and  _273
REMARK  109  A    between atoms: _275  and  _277
REMARK  110  A    between atoms: _277  and  _278
REMARK  111  A    between atoms: _277  and  _280
REMARK  112  A    between atoms: _283  and  _285
REMARK  113  A    between atoms: _285  and  _286
REMARK  114  A    between atoms: _285  and  _288
REMARK  115  A    between atoms: _288  and  _289
REMARK  116  A    between atoms: _289  and  _290
REMARK  117  A    between atoms: _290  and  _291
REMARK  118  A    between atoms: _291  and  _292
REMARK  119  A    between atoms: _296  and  _298
REMARK  120  A    between atoms: _298  and  _299
REMARK  121  A    between atoms: _298  and  _301
REMARK  122  A    between atoms: _301  and  _302
REMARK  123  A    between atoms: _313  and  _314
REMARK  124  A    between atoms: _319  and  _321
REMARK  125  A    between atoms: _321  and  _322
REMARK  126  A    between atoms: _321  and  _324
REMARK  127  A    between atoms: _324  and  _325
REMARK  128  A    between atoms: _330  and  _332
REMARK  129  A    between atoms: _332  and  _333
REMARK  130  A    between atoms: _332  and  _335
REMARK  131  A    between atoms: _335  and  _336
REMARK  132  A    between atoms: _339  and  _341
REMARK  133  A    between atoms: _341  and  _342
REMARK  134  A    between atoms: _341  and  _344
REMARK  135  A    between atoms: _347  and  _349
REMARK  136  A    between atoms: _349  and  _350
REMARK  137  A    between atoms: _352  and  _354
REMARK  138  A    between atoms: _354  and  _355
REMARK  139  A    between atoms: _354  and  _357
REMARK  140  A    between atoms: _357  and  _358
REMARK  141  A    between atoms: _358  and  _359
REMARK  142  A    between atoms: _359  and  _360
REMARK  143  A    between atoms: _360  and  _361
REMARK  144  A    between atoms: _365  and  _367
REMARK  145  A    between atoms: _367  and  _368
REMARK  146  A    between atoms: _367  and  _370
REMARK  147  A    between atoms: _370  and  _371
REMARK  148  A    between atoms: _374  and  _376
REMARK  149  A    between atoms: _376  and  _377
REMARK  150  A    between atoms: _380  and  _382
REMARK  151  A    between atoms: _382  and  _383
REMARK  152  A    between atoms: _385  and  _387
REMARK  153  A    between atoms: _387  and  _388
REMARK  154  A    between atoms: _387  and  _390
REMARK  155  A    between atoms: _390  and  _391
REMARK  156  A    between atoms: _394  and  _396
REMARK  157  A    between atoms: _396  and  _397
REMARK  158  A    between atoms: _396  and  _399
REMARK  159  A    between atoms: _399  and  _400
REMARK  160  A    between atoms: _403  and  _405
REMARK  161  A    between atoms: _405  and  _406
REMARK  162  A    between atoms: _409  and  _411
REMARK  163  A    between atoms: _411  and  _412
REMARK  164  A    between atoms: _411  and  _414
REMARK  165  A    between atoms: _414  and  _415
REMARK  166  A    between atoms: _415  and  _416
REMARK  167  A    between atoms: _419  and  _421
REMARK  168  A    between atoms: _421  and  _422
REMARK  169  A    between atoms: _421  and  _424
REMARK  170  A    between atoms: _427  and  _429
REMARK  171  A    between atoms: _429  and  _430
REMARK  172  A    between atoms: _429  and  _432
REMARK  173  A    between atoms: _432  and  _433
REMARK  174  A    between atoms: _436  and  _438
REMARK  175  A    between atoms: _438  and  _439
REMARK  176  A    between atoms: _441  and  _443
REMARK  177  A    between atoms: _443  and  _444
REMARK  178  A    between atoms: _443  and  _446
REMARK  179  A    between atoms: _449  and  _451
REMARK  180  A    between atoms: _451  and  _452
REMARK  181  A    between atoms: _454  and  _456
REMARK  182  A    between atoms: _456  and  _457
REMARK  183  A    between atoms: _456  and  _459
REMARK  184  A    between atoms: _459  and  _460
REMARK  185  A    between atoms: _463  and  _465
REMARK  186  A    between atoms: _465  and  _466
REMARK  187  A    between atoms: _465  and  _468
REMARK  188  A    between atoms: _468  and  _469
REMARK  189  A    between atoms: _474  and  _476
REMARK  190  A    between atoms: _476  and  _477
REMARK  191  A    between atoms: _476  and  _479
REMARK  192  A    between atoms: _482  and  _484
REMARK  193  A    between atoms: _484  and  _485
REMARK  194  A    between atoms: _484  and  _487
REMARK  195  A    between atoms: _487  and  _488
REMARK  196  A    between atoms: _488  and  _489
REMARK  197  A    between atoms: _494  and  _496
REMARK  198  A    between atoms: _496  and  _497
REMARK  199  A    between atoms: _501  and  _502
REMARK  200  A    between atoms: _507  and  _509
REMARK  201  A    between atoms: _509  and  _510
REMARK  202  A    between atoms: _509  and  _512
REMARK  203  A    between atoms: _512  and  _513
REMARK  204  A    between atoms: _513  and  _514
REMARK  205  A    between atoms: _517  and  _519
REMARK  206  A    between atoms: _519  and  _520
REMARK  207  A    between atoms: _519  and  _522
REMARK  208  A    between atoms: _525  and  _527
REMARK  209  A    between atoms: _527  and  _528
REMARK  210  A    between atoms: _527  and  _530
REMARK  211  A    between atoms: _530  and  _531
REMARK  212  A    between atoms: _535  and  _536
REMARK  213  A    between atoms: _541  and  _543
REMARK  214  A    between atoms: _543  and  _544
REMARK  215  A    between atoms: _543  and  _546
REMARK  216  A    between atoms: _546  and  _547
REMARK  217  A    between atoms: _550  and  _552
REMARK  218  A    between atoms: _552  and  _553
REMARK  219  A    between atoms: _556  and  _558
REMARK  220  A    between atoms: _558  and  _559
REMARK  221  A    between atoms: _558  and  _561
REMARK  222  A    between atoms: _561  and  _562
REMARK  223  A    between atoms: _565  and  _567
REMARK  224  A    between atoms: _567  and  _568
REMARK  225  A    between atoms: _567  and  _570
REMARK  226  A    between atoms: _570  and  _571
REMARK  227  A    between atoms: _573  and  _575
REMARK  228  A    between atoms: _575  and  _576
REMARK  229  A    between atoms: _578  and  _580
REMARK  230  A    between atoms: _580  and  _581
REMARK  231  A    between atoms: _580  and  _583
REMARK  232  A    between atoms: _583  and  _584
REMARK  233  A    between atoms: _587  and  _589
REMARK  234  A    between atoms: _589  and  _590
REMARK  235  A    between atoms: _589  and  _592
REMARK                            x       y       z     vdW  Elec       q    Type
REMARK                         _______ _______ _______ _____ _____    ______ ____
ROOT
ATOM      1  O   HOH     1      -8.116  -5.216   3.452  0.00  0.00    +0.000 OA
ENDROOT
TORSDOF 0
REMARK  Name = ../refined-set-2016/4xtv/4xtv_pocket.pdb
REMARK  235 active torsions:
REMARK  status: ('A' for Active; 'I' for Inactive)
REMARK    1  A    between atoms: _1  and  _3
REMARK    2  A    between atoms: _3  and  _4
REMARK    3  A    between atoms: _3  and  _6
REMARK    4  A    between atoms: _6  and  _7
REMARK    5  A    between atoms: _10  and  _12
REMARK    6  A    between atoms: _12  and  _13
REMARK    7  A    between atoms: _15  and  _17
REMARK    8  A    between atoms: _17  and  _18
REMARK    9  A    between atoms: _17  and  _20
REMARK   10  A    between atoms: _20  and  _21
REMARK   11  A    between atoms: _23  and  _25
REMARK   12  A    between atoms: _25  and  _26
REMARK   13  A    between atoms: _25  and  _28
REMARK   14  A    between atoms: _28  and  _29
REMARK   15  A    between atoms: _32  and  _34
REMARK   16  A    between atoms: _34  and  _35
REMARK   17  A    between atoms: _34  and  _37
REMARK   18  A    between atoms: _37  and  _38
REMARK   19  A    between atoms: _43  and  _45
REMARK   20  A    between atoms: _45  and  _46
REMARK   21  A    between atoms: _49  and  _51
REMARK   22  A    between atoms: _51  and  _52
REMARK   23  A    between atoms: _51  and  _54
REMARK   24  A    between atoms: _54  and  _55
REMARK   25  A    between atoms: _58  and  _60
REMARK   26  A    between atoms: _60  and  _61
REMARK   27  A    between atoms: _60  and  _63
REMARK   28  A    between atoms: _63  and  _64
REMARK   29  A    between atoms: _67  and  _69
REMARK   30  A    between atoms: _69  and  _70
REMARK   31  A    between atoms: _69  and  _72
REMARK   32  A    between atoms: _72  and  _73
REMARK   33  A    between atoms: _76  and  _78
REMARK   34  A    between atoms: _78  and  _79
REMARK   35  A    between atoms: _82  and  _84
REMARK   36  A    between atoms: _84  and  _85
REMARK   37  A    between atoms: _84  and  _87
REMARK   38  A    between atoms: _87  and  _88
REMARK   39  A    between atoms: _88  and  _89
REMARK   40  A    between atoms: _94  and  _96
REMARK   41  A    between atoms: _96  and  _97
REMARK   42  A    between atoms: _96  and  _99
REMARK   43  A    between atoms: _99  and  _100
REMARK   44  A    between atoms: _103  and  _105
REMARK   45  A    between atoms: _105  and  _106
REMARK   46  A    between atoms: _109  and  _111
REMARK   47  A    between atoms: _111  and  _112
REMARK   48  A    between atoms: _114  and  _116
REMARK   49  A    between atoms: _116  and  _117
REMARK   50  A    between atoms: _116  and  _119
REMARK   51  A    between atoms: _119  and  _120
REMARK   52  A    between atoms: _120  and  _121
REMARK   53  A    between atoms: _121  and  _122
REMARK   54  A    between atoms: _131  and  _133
REMARK   55  A    between atoms: _133  and  _134
REMARK   56  A    between atoms: _136  and  _138
REMARK   57  A    between atoms: _138  and  _139
REMARK   58  A    between atoms: _138  and  _141
REMARK   59  A    between atoms: _141  and  _142
REMARK   60  A    between atoms: _142  and  _143
REMARK   61  A    between atoms: _143  and  _144
REMARK   62  A    between atoms: _153  and  _155
REMARK   63  A    between atoms: _155  and  _156
REMARK   64  A    between atoms: _155  and  _158
REMARK   65  A    between atoms: _158  and  _159
REMARK   66  A    between atoms: _164  and  _166
REMARK   67  A    between atoms: _166  and  _167
REMARK   68  A    between atoms: _169  and  _171
REMARK   69  A    between atoms: _171  and  _172
REMARK   70  A    between atoms: _171  and  _174
REMARK   71  A    between atoms: _174  and  _175
REMARK   72  A    between atoms: _175  and  _176
REMARK   73  A    between atoms: _176  and  _177
REMARK   74  A    between atoms: _186  and  _188
REMARK   75  A    between atoms: _188  and  _189
REMARK   76  A    between atoms: _191  and  _193
REMARK   77  A    between atoms: _193  and  _194
REMARK   78  A    between atoms: _193  and  _196
REMARK   79  A    between atoms: _196  and  _197
REMARK   80  A    between atoms: _207  and  _209
REMARK   81  A    between atoms: _209  and  _210
REMARK   82  A    between atoms: _213  and  _215
REMARK   83  A    between atoms: _215  and  _216
REMARK   84  A    between atoms: _219  and  _221
REMARK   85  A    between atoms: _221  and  _222
REMARK   86  A    between atoms: _221  and  _224
REMARK   87  A    between atoms: _224  and  _225
REMARK   88  A    between atoms: _228  and  _230
REMARK   89  A    between atoms: _230  and  _231
REMARK   90  A    between atoms: _230  and  _233
REMARK   91  A    between atoms: _233  and  _234
REMARK   92  A    between atoms: _234  and  _235
REMARK   93  A    between atoms: _240  and  _242
REMARK   94  A    between atoms: _242  and  _243
REMARK   95  A    between atoms: _242  and  _245
REMARK   96  A    between atoms: _245  and  _246
REMARK   97  A    between atoms: _249  and  _251
REMARK   98  A    between atoms: _251  and  _252
REMARK   99  A    between atoms: _251  and  _254
REMARK  100  A    between atoms: _254  and  _255
REMARK  101  A    between atoms: _258  and  _260
REMARK  102  A    between atoms: _260  and  _261
REMARK  103  A    between atoms: _260  and  _263
REMARK  104  A    between atoms: _263  and  _264
REMARK  105  A    between atoms: _267  and  _269
REMARK  106  A    between atoms: _269  and  _270
REMARK  107  A    between atoms: _269  and  _272
REMARK  108  A    between atoms: _272  and  _273
REMARK  109  A    between atoms: _275  and  _277
REMARK  110  A    between atoms: _277  and  _278
REMARK  111  A    between atoms: _277  and  _280
REMARK  112  A    between atoms: _283  and  _285
REMARK  113  A    between atoms: _285  and  _286
REMARK  114  A    between atoms: _285  and  _288
REMARK  115  A    between atoms: _288  and  _289
REMARK  116  A    between atoms: _289  and  _290
REMARK  117  A    between atoms: _290  and  _291
REMARK  118  A    between atoms: _291  and  _292
REMARK  119  A    between atoms: _296  and  _298
REMARK  120  A    between atoms: _298  and  _299
REMARK  121  A    between atoms: _298  and  _301
REMARK  122  A    between atoms: _301  and  _302
REMARK  123  A    between atoms: _313  and  _314
REMARK  124  A    between atoms: _319  and  _321
REMARK  125  A    between atoms: _321  and  _322
REMARK  126  A    between atoms: _321  and  _324
REMARK  127  A    between atoms: _324  and  _325
REMARK  128  A    between atoms: _330  and  _332
REMARK  129  A    between atoms: _332  and  _333
REMARK  130  A    between atoms: _332  and  _335
REMARK  131  A    between atoms: _335  and  _336
REMARK  132  A    between atoms: _339  and  _341
REMARK  133  A    between atoms: _341  and  _342
REMARK  134  A    between atoms: _341  and  _344
REMARK  135  A    between atoms: _347  and  _349
REMARK  136  A    between atoms: _349  and  _350
REMARK  137  A    between atoms: _352  and  _354
REMARK  138  A    between atoms: _354  and  _355
REMARK  139  A    between atoms: _354  and  _357
REMARK  140  A    between atoms: _357  and  _358
REMARK  141  A    between atoms: _358  and  _359
REMARK  142  A    between atoms: _359  and  _360
REMARK  143  A    between atoms: _360  and  _361
REMARK  144  A    between atoms: _365  and  _367
REMARK  145  A    between atoms: _367  and  _368
REMARK  146  A    between atoms: _367  and  _370
REMARK  147  A    between atoms: _370  and  _371
REMARK  148  A    between atoms: _374  and  _376
REMARK  149  A    between atoms: _376  and  _377
REMARK  150  A    between atoms: _380  and  _382
REMARK  151  A    between atoms: _382  and  _383
REMARK  152  A    between atoms: _385  and  _387
REMARK  153  A    between atoms: _387  and  _388
REMARK  154  A    between atoms: _387  and  _390
REMARK  155  A    between atoms: _390  and  _391
REMARK  156  A    between atoms: _394  and  _396
REMARK  157  A    between atoms: _396  and  _397
REMARK  158  A    between atoms: _396  and  _399
REMARK  159  A    between atoms: _399  and  _400
REMARK  160  A    between atoms: _403  and  _405
REMARK  161  A    between atoms: _405  and  _406
REMARK  162  A    between atoms: _409  and  _411
REMARK  163  A    between atoms: _411  and  _412
REMARK  164  A    between atoms: _411  and  _414
REMARK  165  A    between atoms: _414  and  _415
REMARK  166  A    between atoms: _415  and  _416
REMARK  167  A    between atoms: _419  and  _421
REMARK  168  A    between atoms: _421  and  _422
REMARK  169  A    between atoms: _421  and  _424
REMARK  170  A    between atoms: _427  and  _429
REMARK  171  A    between atoms: _429  and  _430
REMARK  172  A    between atoms: _429  and  _432
REMARK  173  A    between atoms: _432  and  _433
REMARK  174  A    between atoms: _436  and  _438
REMARK  175  A    between atoms: _438  and  _439
REMARK  176  A    between atoms: _441  and  _443
REMARK  177  A    between atoms: _443  and  _444
REMARK  178  A    between atoms: _443  and  _446
REMARK  179  A    between atoms: _449  and  _451
REMARK  180  A    between atoms: _451  and  _452
REMARK  181  A    between atoms: _454  and  _456
REMARK  182  A    between atoms: _456  and  _457
REMARK  183  A    between atoms: _456  and  _459
REMARK  184  A    between atoms: _459  and  _460
REMARK  185  A    between atoms: _463  and  _465
REMARK  186  A    between atoms: _465  and  _466
REMARK  187  A    between atoms: _465  and  _468
REMARK  188  A    between atoms: _468  and  _469
REMARK  189  A    between atoms: _474  and  _476
REMARK  190  A    between atoms: _476  and  _477
REMARK  191  A    between atoms: _476  and  _479
REMARK  192  A    between atoms: _482  and  _484
REMARK  193  A    between atoms: _484  and  _485
REMARK  194  A    between atoms: _484  and  _487
REMARK  195  A    between atoms: _487  and  _488
REMARK  196  A    between atoms: _488  and  _489
REMARK  197  A    between atoms: _494  and  _496
REMARK  198  A    between atoms: _496  and  _497
REMARK  199  A    between atoms: _501  and  _502
REMARK  200  A    between atoms: _507  and  _509
REMARK  201  A    between atoms: _509  and  _510
REMARK  202  A    between atoms: _509  and  _512
REMARK  203  A    between atoms: _512  and  _513
REMARK  204  A    between atoms: _513  and  _514
REMARK  205  A    between atoms: _517  and  _519
REMARK  206  A    between atoms: _519  and  _520
REMARK  207  A    between atoms: _519  and  _522
REMARK  208  A    between atoms: _525  and  _527
REMARK  209  A    between atoms: _527  and  _528
REMARK  210  A    between atoms: _527  and  _530
REMARK  211  A    between atoms: _530  and  _531
REMARK  212  A    between atoms: _535  and  _536
REMARK  213  A    between atoms: _541  and  _543
REMARK  214  A    between atoms: _543  and  _544
REMARK  215  A    between atoms: _543  and  _546
REMARK  216  A    between atoms: _546  and  _547
REMARK  217  A    between atoms: _550  and  _552
REMARK  218  A    between atoms: _552  and  _553
REMARK  219  A    between atoms: _556  and  _558
REMARK  220  A    between atoms: _558  and  _559
REMARK  221  A    between atoms: _558  and  _561
REMARK  222  A    between atoms: _561  and  _562
REMARK  223  A    between atoms: _565  and  _567
REMARK  224  A    between atoms: _567  and  _568
REMARK  225  A    between atoms: _567  and  _570
REMARK  226  A    between atoms: _570  and  _571
REMARK  227  A    between atoms: _573  and  _575
REMARK  228  A    between atoms: _575  and  _576
REMARK  229  A    between atoms: _578  and  _580
REMARK  230  A    between atoms: _580  and  _581
REMARK  231  A    between atoms: _580  and  _583
REMARK  232  A    between atoms: _583  and  _584
REMARK  233  A    between atoms: _587  and  _589
REMARK  234  A    between atoms: _589  and  _590
REMARK  235  A    between atoms: _589  and  _592
REMARK                            x       y       z     vdW  Elec       q    Type
REMARK                         _______ _______ _______ _____ _____    ______ ____
ROOT
ATOM      1  O   HOH     1       4.963  -5.356   9.589  0.00  0.00    +0.000 OA
ENDROOT
TORSDOF 0
REMARK  Name = ../refined-set-2016/4xtv/4xtv_pocket.pdb
REMARK  235 active torsions:
REMARK  status: ('A' for Active; 'I' for Inactive)
REMARK    1  A    between atoms: _1  and  _3
REMARK    2  A    between atoms: _3  and  _4
REMARK    3  A    between atoms: _3  and  _6
REMARK    4  A    between atoms: _6  and  _7
REMARK    5  A    between atoms: _10  and  _12
REMARK    6  A    between atoms: _12  and  _13
REMARK    7  A    between atoms: _15  and  _17
REMARK    8  A    between atoms: _17  and  _18
REMARK    9  A    between atoms: _17  and  _20
REMARK   10  A    between atoms: _20  and  _21
REMARK   11  A    between atoms: _23  and  _25
REMARK   12  A    between atoms: _25  and  _26
REMARK   13  A    between atoms: _25  and  _28
REMARK   14  A    between atoms: _28  and  _29
REMARK   15  A    between atoms: _32  and  _34
REMARK   16  A    between atoms: _34  and  _35
REMARK   17  A    between atoms: _34  and  _37
REMARK   18  A    between atoms: _37  and  _38
REMARK   19  A    between atoms: _43  and  _45
REMARK   20  A    between atoms: _45  and  _46
REMARK   21  A    between atoms: _49  and  _51
REMARK   22  A    between atoms: _51  and  _52
REMARK   23  A    between atoms: _51  and  _54
REMARK   24  A    between atoms: _54  and  _55
REMARK   25  A    between atoms: _58  and  _60
REMARK   26  A    between atoms: _60  and  _61
REMARK   27  A    between atoms: _60  and  _63
REMARK   28  A    between atoms: _63  and  _64
REMARK   29  A    between atoms: _67  and  _69
REMARK   30  A    between atoms: _69  and  _70
REMARK   31  A    between atoms: _69  and  _72
REMARK   32  A    between atoms: _72  and  _73
REMARK   33  A    between atoms: _76  and  _78
REMARK   34  A    between atoms: _78  and  _79
REMARK   35  A    between atoms: _82  and  _84
REMARK   36  A    between atoms: _84  and  _85
REMARK   37  A    between atoms: _84  and  _87
REMARK   38  A    between atoms: _87  and  _88
REMARK   39  A    between atoms: _88  and  _89
REMARK   40  A    between atoms: _94  and  _96
REMARK   41  A    between atoms: _96  and  _97
REMARK   42  A    between atoms: _96  and  _99
REMARK   43  A    between atoms: _99  and  _100
REMARK   44  A    between atoms: _103  and  _105
REMARK   45  A    between atoms: _105  and  _106
REMARK   46  A    between atoms: _109  and  _111
REMARK   47  A    between atoms: _111  and  _112
REMARK   48  A    between atoms: _114  and  _116
REMARK   49  A    between atoms: _116  and  _117
REMARK   50  A    between atoms: _116  and  _119
REMARK   51  A    between atoms: _119  and  _120
REMARK   52  A    between atoms: _120  and  _121
REMARK   53  A    between atoms: _121  and  _122
REMARK   54  A    between atoms: _131  and  _133
REMARK   55  A    between atoms: _133  and  _134
REMARK   56  A    between atoms: _136  and  _138
REMARK   57  A    between atoms: _138  and  _139
REMARK   58  A    between atoms: _138  and  _141
REMARK   59  A    between atoms: _141  and  _142
REMARK   60  A    between atoms: _142  and  _143
REMARK   61  A    between atoms: _143  and  _144
REMARK   62  A    between atoms: _153  and  _155
REMARK   63  A    between atoms: _155  and  _156
REMARK   64  A    between atoms: _155  and  _158
REMARK   65  A    between atoms: _158  and  _159
REMARK   66  A    between atoms: _164  and  _166
REMARK   67  A    between atoms: _166  and  _167
REMARK   68  A    between atoms: _169  and  _171
REMARK   69  A    between atoms: _171  and  _172
REMARK   70  A    between atoms: _171  and  _174
REMARK   71  A    between atoms: _174  and  _175
REMARK   72  A    between atoms: _175  and  _176
REMARK   73  A    between atoms: _176  and  _177
REMARK   74  A    between atoms: _186  and  _188
REMARK   75  A    between atoms: _188  and  _189
REMARK   76  A    between atoms: _191  and  _193
REMARK   77  A    between atoms: _193  and  _194
REMARK   78  A    between atoms: _193  and  _196
REMARK   79  A    between atoms: _196  and  _197
REMARK   80  A    between atoms: _207  and  _209
REMARK   81  A    between atoms: _209  and  _210
REMARK   82  A    between atoms: _213  and  _215
REMARK   83  A    between atoms: _215  and  _216
REMARK   84  A    between atoms: _219  and  _221
REMARK   85  A    between atoms: _221  and  _222
REMARK   86  A    between atoms: _221  and  _224
REMARK   87  A    between atoms: _224  and  _225
REMARK   88  A    between atoms: _228  and  _230
REMARK   89  A    between atoms: _230  and  _231
REMARK   90  A    between atoms: _230  and  _233
REMARK   91  A    between atoms: _233  and  _234
REMARK   92  A    between atoms: _234  and  _235
REMARK   93  A    between atoms: _240  and  _242
REMARK   94  A    between atoms: _242  and  _243
REMARK   95  A    between atoms: _242  and  _245
REMARK   96  A    between atoms: _245  and  _246
REMARK   97  A    between atoms: _249  and  _251
REMARK   98  A    between atoms: _251  and  _252
REMARK   99  A    between atoms: _251  and  _254
REMARK  100  A    between atoms: _254  and  _255
REMARK  101  A    between atoms: _258  and  _260
REMARK  102  A    between atoms: _260  and  _261
REMARK  103  A    between atoms: _260  and  _263
REMARK  104  A    between atoms: _263  and  _264
REMARK  105  A    between atoms: _267  and  _269
REMARK  106  A    between atoms: _269  and  _270
REMARK  107  A    between atoms: _269  and  _272
REMARK  108  A    between atoms: _272  and  _273
REMARK  109  A    between atoms: _275  and  _277
REMARK  110  A    between atoms: _277  and  _278
REMARK  111  A    between atoms: _277  and  _280
REMARK  112  A    between atoms: _283  and  _285
REMARK  113  A    between atoms: _285  and  _286
REMARK  114  A    between atoms: _285  and  _288
REMARK  115  A    between atoms: _288  and  _289
REMARK  116  A    between atoms: _289  and  _290
REMARK  117  A    between atoms: _290  and  _291
REMARK  118  A    between atoms: _291  and  _292
REMARK  119  A    between atoms: _296  and  _298
REMARK  120  A    between atoms: _298  and  _299
REMARK  121  A    between atoms: _298  and  _301
REMARK  122  A    between atoms: _301  and  _302
REMARK  123  A    between atoms: _313  and  _314
REMARK  124  A    between atoms: _319  and  _321
REMARK  125  A    between atoms: _321  and  _322
REMARK  126  A    between atoms: _321  and  _324
REMARK  127  A    between atoms: _324  and  _325
REMARK  128  A    between atoms: _330  and  _332
REMARK  129  A    between atoms: _332  and  _333
REMARK  130  A    between atoms: _332  and  _335
REMARK  131  A    between atoms: _335  and  _336
REMARK  132  A    between atoms: _339  and  _341
REMARK  133  A    between atoms: _341  and  _342
REMARK  134  A    between atoms: _341  and  _344
REMARK  135  A    between atoms: _347  and  _349
REMARK  136  A    between atoms: _349  and  _350
REMARK  137  A    between atoms: _352  and  _354
REMARK  138  A    between atoms: _354  and  _355
REMARK  139  A    between atoms: _354  and  _357
REMARK  140  A    between atoms: _357  and  _358
REMARK  141  A    between atoms: _358  and  _359
REMARK  142  A    between atoms: _359  and  _360
REMARK  143  A    between atoms: _360  and  _361
REMARK  144  A    between atoms: _365  and  _367
REMARK  145  A    between atoms: _367  and  _368
REMARK  146  A    between atoms: _367  and  _370
REMARK  147  A    between atoms: _370  and  _371
REMARK  148  A    between atoms: _374  and  _376
REMARK  149  A    between atoms: _376  and  _377
REMARK  150  A    between atoms: _380  and  _382
REMARK  151  A    between atoms: _382  and  _383
REMARK  152  A    between atoms: _385  and  _387
REMARK  153  A    between atoms: _387  and  _388
REMARK  154  A    between atoms: _387  and  _390
REMARK  155  A    between atoms: _390  and  _391
REMARK  156  A    between atoms: _394  and  _396
REMARK  157  A    between atoms: _396  and  _397
REMARK  158  A    between atoms: _396  and  _399
REMARK  159  A    between atoms: _399  and  _400
REMARK  160  A    between atoms: _403  and  _405
REMARK  161  A    between atoms: _405  and  _406
REMARK  162  A    between atoms: _409  and  _411
REMARK  163  A    between atoms: _411  and  _412
REMARK  164  A    between atoms: _411  and  _414
REMARK  165  A    between atoms: _414  and  _415
REMARK  166  A    between atoms: _415  and  _416
REMARK  167  A    between atoms: _419  and  _421
REMARK  168  A    between atoms: _421  and  _422
REMARK  169  A    between atoms: _421  and  _424
REMARK  170  A    between atoms: _427  and  _429
REMARK  171  A    between atoms: _429  and  _430
REMARK  172  A    between atoms: _429  and  _432
REMARK  173  A    between atoms: _432  and  _433
REMARK  174  A    between atoms: _436  and  _438
REMARK  175  A    between atoms: _438  and  _439
REMARK  176  A    between atoms: _441  and  _443
REMARK  177  A    between atoms: _443  and  _444
REMARK  178  A    between atoms: _443  and  _446
REMARK  179  A    between atoms: _449  and  _451
REMARK  180  A    between atoms: _451  and  _452
REMARK  181  A    between atoms: _454  and  _456
REMARK  182  A    between atoms: _456  and  _457
REMARK  183  A    between atoms: _456  and  _459
REMARK  184  A    between atoms: _459  and  _460
REMARK  185  A    between atoms: _463  and  _465
REMARK  186  A    between atoms: _465  and  _466
REMARK  187  A    between atoms: _465  and  _468
REMARK  188  A    between atoms: _468  and  _469
REMARK  189  A    between atoms: _474  and  _476
REMARK  190  A    between atoms: _476  and  _477
REMARK  191  A    between atoms: _476  and  _479
REMARK  192  A    between atoms: _482  and  _484
REMARK  193  A    between atoms: _484  and  _485
REMARK  194  A    between atoms: _484  and  _487
REMARK  195  A    between atoms: _487  and  _488
REMARK  196  A    between atoms: _488  and  _489
REMARK  197  A    between atoms: _494  and  _496
REMARK  198  A    between atoms: _496  and  _497
REMARK  199  A    between atoms: _501  and  _502
REMARK  200  A    between atoms: _507  and  _509
REMARK  201  A    between atoms: _509  and  _510
REMARK  202  A    between atoms: _509  and  _512
REMARK  203  A    between atoms: _512  and  _513
REMARK  204  A    between atoms: _513  and  _514
REMARK  205  A    between atoms: _517  and  _519
REMARK  206  A    between atoms: _519  and  _520
REMARK  207  A    between atoms: _519  and  _522
REMARK  208  A    between atoms: _525  and  _527
REMARK  209  A    between atoms: _527  and  _528
REMARK  210  A    between atoms: _527  and  _530
REMARK  211  A    between atoms: _530  and  _531
REMARK  212  A    between atoms: _535  and  _536
REMARK  213  A    between atoms: _541  and  _543
REMARK  214  A    between atoms: _543  and  _544
REMARK  215  A    between atoms: _543  and  _546
REMARK  216  A    between atoms: _546  and  _547
REMARK  217  A    between atoms: _550  and  _552
REMARK  218  A    between atoms: _552  and  _553
REMARK  219  A    between atoms: _556  and  _558
REMARK  220  A    between atoms: _558  and  _559
REMARK  221  A    between atoms: _558  and  _561
REMARK  222  A    between atoms: _561  and  _562
REMARK  223  A    between atoms: _565  and  _567
REMARK  224  A    between atoms: _567  and  _568
REMARK  225  A    between atoms: _567  and  _570
REMARK  226  A    between atoms: _570  and  _571
REMARK  227  A    between atoms: _573  and  _575
REMARK  228  A    between atoms: _575  and  _576
REMARK  229  A    between atoms: _578  and  _580
REMARK  230  A    between atoms: _580  and  _581
REMARK  231  A    between atoms: _580  and  _583
REMARK  232  A    between atoms: _583  and  _584
REMARK  233  A    between atoms: _587  and  _589
REMARK  234  A    between atoms: _589  and  _590
REMARK  235  A    between atoms: _589  and  _592
REMARK                            x       y       z     vdW  Elec       q    Type
REMARK                         _______ _______ _______ _____ _____    ______ ____
ROOT
ATOM      1  O   HOH     1       0.828 -10.374   3.416  0.00  0.00    +0.000 OA
ENDROOT
TORSDOF 0
REMARK  Name = ../refined-set-2016/4xtv/4xtv_pocket.pdb
REMARK  235 active torsions:
REMARK  status: ('A' for Active; 'I' for Inactive)
REMARK    1  A    between atoms: _1  and  _3
REMARK    2  A    between atoms: _3  and  _4
REMARK    3  A    between atoms: _3  and  _6
REMARK    4  A    between atoms: _6  and  _7
REMARK    5  A    between atoms: _10  and  _12
REMARK    6  A    between atoms: _12  and  _13
REMARK    7  A    between atoms: _15  and  _17
REMARK    8  A    between atoms: _17  and  _18
REMARK    9  A    between atoms: _17  and  _20
REMARK   10  A    between atoms: _20  and  _21
REMARK   11  A    between atoms: _23  and  _25
REMARK   12  A    between atoms: _25  and  _26
REMARK   13  A    between atoms: _25  and  _28
REMARK   14  A    between atoms: _28  and  _29
REMARK   15  A    between atoms: _32  and  _34
REMARK   16  A    between atoms: _34  and  _35
REMARK   17  A    between atoms: _34  and  _37
REMARK   18  A    between atoms: _37  and  _38
REMARK   19  A    between atoms: _43  and  _45
REMARK   20  A    between atoms: _45  and  _46
REMARK   21  A    between atoms: _49  and  _51
REMARK   22  A    between atoms: _51  and  _52
REMARK   23  A    between atoms: _51  and  _54
REMARK   24  A    between atoms: _54  and  _55
REMARK   25  A    between atoms: _58  and  _60
REMARK   26  A    between atoms: _60  and  _61
REMARK   27  A    between atoms: _60  and  _63
REMARK   28  A    between atoms: _63  and  _64
REMARK   29  A    between atoms: _67  and  _69
REMARK   30  A    between atoms: _69  and  _70
REMARK   31  A    between atoms: _69  and  _72
REMARK   32  A    between atoms: _72  and  _73
REMARK   33  A    between atoms: _76  and  _78
REMARK   34  A    between atoms: _78  and  _79
REMARK   35  A    between atoms: _82  and  _84
REMARK   36  A    between atoms: _84  and  _85
REMARK   37  A    between atoms: _84  and  _87
REMARK   38  A    between atoms: _87  and  _88
REMARK   39  A    between atoms: _88  and  _89
REMARK   40  A    between atoms: _94  and  _96
REMARK   41  A    between atoms: _96  and  _97
REMARK   42  A    between atoms: _96  and  _99
REMARK   43  A    between atoms: _99  and  _100
REMARK   44  A    between atoms: _103  and  _105
REMARK   45  A    between atoms: _105  and  _106
REMARK   46  A    between atoms: _109  and  _111
REMARK   47  A    between atoms: _111  and  _112
REMARK   48  A    between atoms: _114  and  _116
REMARK   49  A    between atoms: _116  and  _117
REMARK   50  A    between atoms: _116  and  _119
REMARK   51  A    between atoms: _119  and  _120
REMARK   52  A    between atoms: _120  and  _121
REMARK   53  A    between atoms: _121  and  _122
REMARK   54  A    between atoms: _131  and  _133
REMARK   55  A    between atoms: _133  and  _134
REMARK   56  A    between atoms: _136  and  _138
REMARK   57  A    between atoms: _138  and  _139
REMARK   58  A    between atoms: _138  and  _141
REMARK   59  A    between atoms: _141  and  _142
REMARK   60  A    between atoms: _142  and  _143
REMARK   61  A    between atoms: _143  and  _144
REMARK   62  A    between atoms: _153  and  _155
REMARK   63  A    between atoms: _155  and  _156
REMARK   64  A    between atoms: _155  and  _158
REMARK   65  A    between atoms: _158  and  _159
REMARK   66  A    between atoms: _164  and  _166
REMARK   67  A    between atoms: _166  and  _167
REMARK   68  A    between atoms: _169  and  _171
REMARK   69  A    between atoms: _171  and  _172
REMARK   70  A    between atoms: _171  and  _174
REMARK   71  A    between atoms: _174  and  _175
REMARK   72  A    between atoms: _175  and  _176
REMARK   73  A    between atoms: _176  and  _177
REMARK   74  A    between atoms: _186  and  _188
REMARK   75  A    between atoms: _188  and  _189
REMARK   76  A    between atoms: _191  and  _193
REMARK   77  A    between atoms: _193  and  _194
REMARK   78  A    between atoms: _193  and  _196
REMARK   79  A    between atoms: _196  and  _197
REMARK   80  A    between atoms: _207  and  _209
REMARK   81  A    between atoms: _209  and  _210
REMARK   82  A    between atoms: _213  and  _215
REMARK   83  A    between atoms: _215  and  _216
REMARK   84  A    between atoms: _219  and  _221
REMARK   85  A    between atoms: _221  and  _222
REMARK   86  A    between atoms: _221  and  _224
REMARK   87  A    between atoms: _224  and  _225
REMARK   88  A    between atoms: _228  and  _230
REMARK   89  A    between atoms: _230  and  _231
REMARK   90  A    between atoms: _230  and  _233
REMARK   91  A    between atoms: _233  and  _234
REMARK   92  A    between atoms: _234  and  _235
REMARK   93  A    between atoms: _240  and  _242
REMARK   94  A    between atoms: _242  and  _243
REMARK   95  A    between atoms: _242  and  _245
REMARK   96  A    between atoms: _245  and  _246
REMARK   97  A    between atoms: _249  and  _251
REMARK   98  A    between atoms: _251  and  _252
REMARK   99  A    between atoms: _251  and  _254
REMARK  100  A    between atoms: _254  and  _255
REMARK  101  A    between atoms: _258  and  _260
REMARK  102  A    between atoms: _260  and  _261
REMARK  103  A    between atoms: _260  and  _263
REMARK  104  A    between atoms: _263  and  _264
REMARK  105  A    between atoms: _267  and  _269
REMARK  106  A    between atoms: _269  and  _270
REMARK  107  A    between atoms: _269  and  _272
REMARK  108  A    between atoms: _272  and  _273
REMARK  109  A    between atoms: _275  and  _277
REMARK  110  A    between atoms: _277  and  _278
REMARK  111  A    between atoms: _277  and  _280
REMARK  112  A    between atoms: _283  and  _285
REMARK  113  A    between atoms: _285  and  _286
REMARK  114  A    between atoms: _285  and  _288
REMARK  115  A    between atoms: _288  and  _289
REMARK  116  A    between atoms: _289  and  _290
REMARK  117  A    between atoms: _290  and  _291
REMARK  118  A    between atoms: _291  and  _292
REMARK  119  A    between atoms: _296  and  _298
REMARK  120  A    between atoms: _298  and  _299
REMARK  121  A    between atoms: _298  and  _301
REMARK  122  A    between atoms: _301  and  _302
REMARK  123  A    between atoms: _313  and  _314
REMARK  124  A    between atoms: _319  and  _321
REMARK  125  A    between atoms: _321  and  _322
REMARK  126  A    between atoms: _321  and  _324
REMARK  127  A    between atoms: _324  and  _325
REMARK  128  A    between atoms: _330  and  _332
REMARK  129  A    between atoms: _332  and  _333
REMARK  130  A    between atoms: _332  and  _335
REMARK  131  A    between atoms: _335  and  _336
REMARK  132  A    between atoms: _339  and  _341
REMARK  133  A    between atoms: _341  and  _342
REMARK  134  A    between atoms: _341  and  _344
REMARK  135  A    between atoms: _347  and  _349
REMARK  136  A    between atoms: _349  and  _350
REMARK  137  A    between atoms: _352  and  _354
REMARK  138  A    between atoms: _354  and  _355
REMARK  139  A    between atoms: _354  and  _357
REMARK  140  A    between atoms: _357  and  _358
REMARK  141  A    between atoms: _358  and  _359
REMARK  142  A    between atoms: _359  and  _360
REMARK  143  A    between atoms: _360  and  _361
REMARK  144  A    between atoms: _365  and  _367
REMARK  145  A    between atoms: _367  and  _368
REMARK  146  A    between atoms: _367  and  _370
REMARK  147  A    between atoms: _370  and  _371
REMARK  148  A    between atoms: _374  and  _376
REMARK  149  A    between atoms: _376  and  _377
REMARK  150  A    between atoms: _380  and  _382
REMARK  151  A    between atoms: _382  and  _383
REMARK  152  A    between atoms: _385  and  _387
REMARK  153  A    between atoms: _387  and  _388
REMARK  154  A    between atoms: _387  and  _390
REMARK  155  A    between atoms: _390  and  _391
REMARK  156  A    between atoms: _394  and  _396
REMARK  157  A    between atoms: _396  and  _397
REMARK  158  A    between atoms: _396  and  _399
REMARK  159  A    between atoms: _399  and  _400
REMARK  160  A    between atoms: _403  and  _405
REMARK  161  A    between atoms: _405  and  _406
REMARK  162  A    between atoms: _409  and  _411
REMARK  163  A    between atoms: _411  and  _412
REMARK  164  A    between atoms: _411  and  _414
REMARK  165  A    between atoms: _414  and  _415
REMARK  166  A    between atoms: _415  and  _416
REMARK  167  A    between atoms: _419  and  _421
REMARK  168  A    between atoms: _421  and  _422
REMARK  169  A    between atoms: _421  and  _424
REMARK  170  A    between atoms: _427  and  _429
REMARK  171  A    between atoms: _429  and  _430
REMARK  172  A    between atoms: _429  and  _432
REMARK  173  A    between atoms: _432  and  _433
REMARK  174  A    between atoms: _436  and  _438
REMARK  175  A    between atoms: _438  and  _439
REMARK  176  A    between atoms: _441  and  _443
REMARK  177  A    between atoms: _443  and  _444
REMARK  178  A    between atoms: _443  and  _446
REMARK  179  A    between atoms: _449  and  _451
REMARK  180  A    between atoms: _451  and  _452
REMARK  181  A    between atoms: _454  and  _456
REMARK  182  A    between atoms: _456  and  _457
REMARK  183  A    between atoms: _456  and  _459
REMARK  184  A    between atoms: _459  and  _460
REMARK  185  A    between atoms: _463  and  _465
REMARK  186  A    between atoms: _465  and  _466
REMARK  187  A    between atoms: _465  and  _468
REMARK  188  A    between atoms: _468  and  _469
REMARK  189  A    between atoms: _474  and  _476
REMARK  190  A    between atoms: _476  and  _477
REMARK  191  A    between atoms: _476  and  _479
REMARK  192  A    between atoms: _482  and  _484
REMARK  193  A    between atoms: _484  and  _485
REMARK  194  A    between atoms: _484  and  _487
REMARK  195  A    between atoms: _487  and  _488
REMARK  196  A    between atoms: _488  and  _489
REMARK  197  A    between atoms: _494  and  _496
REMARK  198  A    between atoms: _496  and  _497
REMARK  199  A    between atoms: _501  and  _502
REMARK  200  A    between atoms: _507  and  _509
REMARK  201  A    between atoms: _509  and  _510
REMARK  202  A    between atoms: _509  and  _512
REMARK  203  A    between atoms: _512  and  _513
REMARK  204  A    between atoms: _513  and  _514
REMARK  205  A    between atoms: _517  and  _519
REMARK  206  A    between atoms: _519  and  _520
REMARK  207  A    between atoms: _519  and  _522
REMARK  208  A    between atoms: _525  and  _527
REMARK  209  A    between atoms: _527  and  _528
REMARK  210  A    between atoms: _527  and  _530
REMARK  211  A    between atoms: _530  and  _531
REMARK  212  A    between atoms: _535  and  _536
REMARK  213  A    between atoms: _541  and  _543
REMARK  214  A    between atoms: _543  and  _544
REMARK  215  A    between atoms: _543  and  _546
REMARK  216  A    between atoms: _546  and  _547
REMARK  217  A    between atoms: _550  and  _552
REMARK  218  A    between atoms: _552  and  _553
REMARK  219  A    between atoms: _556  and  _558
REMARK  220  A    between atoms: _558  and  _559
REMARK  221  A    between atoms: _558  and  _561
REMARK  222  A    between atoms: _561  and  _562
REMARK  223  A    between atoms: _565  and  _567
REMARK  224  A    between atoms: _567  and  _568
REMARK  225  A    between atoms: _567  and  _570
REMARK  226  A    between atoms: _570  and  _571
REMARK  227  A    between atoms: _573  and  _575
REMARK  228  A    between atoms: _575  and  _576
REMARK  229  A    between atoms: _578  and  _580
REMARK  230  A    between atoms: _580  and  _581
REMARK  231  A    between atoms: _580  and  _583
REMARK  232  A    between atoms: _583  and  _584
REMARK  233  A    between atoms: _587  and  _589
REMARK  234  A    between atoms: _589  and  _590
REMARK  235  A    between atoms: _589  and  _592
REMARK                            x       y       z     vdW  Elec       q    Type
REMARK                         _______ _______ _______ _____ _____    ______ ____
ROOT
ATOM      1  O   HOH     1       2.181  -1.839  16.598  0.00  0.00    +0.000 OA
ENDROOT
TORSDOF 0
REMARK  Name = ../refined-set-2016/4xtv/4xtv_pocket.pdb
REMARK  235 active torsions:
REMARK  status: ('A' for Active; 'I' for Inactive)
REMARK    1  A    between atoms: _1  and  _3
REMARK    2  A    between atoms: _3  and  _4
REMARK    3  A    between atoms: _3  and  _6
REMARK    4  A    between atoms: _6  and  _7
REMARK    5  A    between atoms: _10  and  _12
REMARK    6  A    between atoms: _12  and  _13
REMARK    7  A    between atoms: _15  and  _17
REMARK    8  A    between atoms: _17  and  _18
REMARK    9  A    between atoms: _17  and  _20
REMARK   10  A    between atoms: _20  and  _21
REMARK   11  A    between atoms: _23  and  _25
REMARK   12  A    between atoms: _25  and  _26
REMARK   13  A    between atoms: _25  and  _28
REMARK   14  A    between atoms: _28  and  _29
REMARK   15  A    between atoms: _32  and  _34
REMARK   16  A    between atoms: _34  and  _35
REMARK   17  A    between atoms: _34  and  _37
REMARK   18  A    between atoms: _37  and  _38
REMARK   19  A    between atoms: _43  and  _45
REMARK   20  A    between atoms: _45  and  _46
REMARK   21  A    between atoms: _49  and  _51
REMARK   22  A    between atoms: _51  and  _52
REMARK   23  A    between atoms: _51  and  _54
REMARK   24  A    between atoms: _54  and  _55
REMARK   25  A    between atoms: _58  and  _60
REMARK   26  A    between atoms: _60  and  _61
REMARK   27  A    between atoms: _60  and  _63
REMARK   28  A    between atoms: _63  and  _64
REMARK   29  A    between atoms: _67  and  _69
REMARK   30  A    between atoms: _69  and  _70
REMARK   31  A    between atoms: _69  and  _72
REMARK   32  A    between atoms: _72  and  _73
REMARK   33  A    between atoms: _76  and  _78
REMARK   34  A    between atoms: _78  and  _79
REMARK   35  A    between atoms: _82  and  _84
REMARK   36  A    between atoms: _84  and  _85
REMARK   37  A    between atoms: _84  and  _87
REMARK   38  A    between atoms: _87  and  _88
REMARK   39  A    between atoms: _88  and  _89
REMARK   40  A    between atoms: _94  and  _96
REMARK   41  A    between atoms: _96  and  _97
REMARK   42  A    between atoms: _96  and  _99
REMARK   43  A    between atoms: _99  and  _100
REMARK   44  A    between atoms: _103  and  _105
REMARK   45  A    between atoms: _105  and  _106
REMARK   46  A    between atoms: _109  and  _111
REMARK   47  A    between atoms: _111  and  _112
REMARK   48  A    between atoms: _114  and  _116
REMARK   49  A    between atoms: _116  and  _117
REMARK   50  A    between atoms: _116  and  _119
REMARK   51  A    between atoms: _119  and  _120
REMARK   52  A    between atoms: _120  and  _121
REMARK   53  A    between atoms: _121  and  _122
REMARK   54  A    between atoms: _131  and  _133
REMARK   55  A    between atoms: _133  and  _134
REMARK   56  A    between atoms: _136  and  _138
REMARK   57  A    between atoms: _138  and  _139
REMARK   58  A    between atoms: _138  and  _141
REMARK   59  A    between atoms: _141  and  _142
REMARK   60  A    between atoms: _142  and  _143
REMARK   61  A    between atoms: _143  and  _144
REMARK   62  A    between atoms: _153  and  _155
REMARK   63  A    between atoms: _155  and  _156
REMARK   64  A    between atoms: _155  and  _158
REMARK   65  A    between atoms: _158  and  _159
REMARK   66  A    between atoms: _164  and  _166
REMARK   67  A    between atoms: _166  and  _167
REMARK   68  A    between atoms: _169  and  _171
REMARK   69  A    between atoms: _171  and  _172
REMARK   70  A    between atoms: _171  and  _174
REMARK   71  A    between atoms: _174  and  _175
REMARK   72  A    between atoms: _175  and  _176
REMARK   73  A    between atoms: _176  and  _177
REMARK   74  A    between atoms: _186  and  _188
REMARK   75  A    between atoms: _188  and  _189
REMARK   76  A    between atoms: _191  and  _193
REMARK   77  A    between atoms: _193  and  _194
REMARK   78  A    between atoms: _193  and  _196
REMARK   79  A    between atoms: _196  and  _197
REMARK   80  A    between atoms: _207  and  _209
REMARK   81  A    between atoms: _209  and  _210
REMARK   82  A    between atoms: _213  and  _215
REMARK   83  A    between atoms: _215  and  _216
REMARK   84  A    between atoms: _219  and  _221
REMARK   85  A    between atoms: _221  and  _222
REMARK   86  A    between atoms: _221  and  _224
REMARK   87  A    between atoms: _224  and  _225
REMARK   88  A    between atoms: _228  and  _230
REMARK   89  A    between atoms: _230  and  _231
REMARK   90  A    between atoms: _230  and  _233
REMARK   91  A    between atoms: _233  and  _234
REMARK   92  A    between atoms: _234  and  _235
REMARK   93  A    between atoms: _240  and  _242
REMARK   94  A    between atoms: _242  and  _243
REMARK   95  A    between atoms: _242  and  _245
REMARK   96  A    between atoms: _245  and  _246
REMARK   97  A    between atoms: _249  and  _251
REMARK   98  A    between atoms: _251  and  _252
REMARK   99  A    between atoms: _251  and  _254
REMARK  100  A    between atoms: _254  and  _255
REMARK  101  A    between atoms: _258  and  _260
REMARK  102  A    between atoms: _260  and  _261
REMARK  103  A    between atoms: _260  and  _263
REMARK  104  A    between atoms: _263  and  _264
REMARK  105  A    between atoms: _267  and  _269
REMARK  106  A    between atoms: _269  and  _270
REMARK  107  A    between atoms: _269  and  _272
REMARK  108  A    between atoms: _272  and  _273
REMARK  109  A    between atoms: _275  and  _277
REMARK  110  A    between atoms: _277  and  _278
REMARK  111  A    between atoms: _277  and  _280
REMARK  112  A    between atoms: _283  and  _285
REMARK  113  A    between atoms: _285  and  _286
REMARK  114  A    between atoms: _285  and  _288
REMARK  115  A    between atoms: _288  and  _289
REMARK  116  A    between atoms: _289  and  _290
REMARK  117  A    between atoms: _290  and  _291
REMARK  118  A    between atoms: _291  and  _292
REMARK  119  A    between atoms: _296  and  _298
REMARK  120  A    between atoms: _298  and  _299
REMARK  121  A    between atoms: _298  and  _301
REMARK  122  A    between atoms: _301  and  _302
REMARK  123  A    between atoms: _313  and  _314
REMARK  124  A    between atoms: _319  and  _321
REMARK  125  A    between atoms: _321  and  _322
REMARK  126  A    between atoms: _321  and  _324
REMARK  127  A    between atoms: _324  and  _325
REMARK  128  A    between atoms: _330  and  _332
REMARK  129  A    between atoms: _332  and  _333
REMARK  130  A    between atoms: _332  and  _335
REMARK  131  A    between atoms: _335  and  _336
REMARK  132  A    between atoms: _339  and  _341
REMARK  133  A    between atoms: _341  and  _342
REMARK  134  A    between atoms: _341  and  _344
REMARK  135  A    between atoms: _347  and  _349
REMARK  136  A    between atoms: _349  and  _350
REMARK  137  A    between atoms: _352  and  _354
REMARK  138  A    between atoms: _354  and  _355
REMARK  139  A    between atoms: _354  and  _357
REMARK  140  A    between atoms: _357  and  _358
REMARK  141  A    between atoms: _358  and  _359
REMARK  142  A    between atoms: _359  and  _360
REMARK  143  A    between atoms: _360  and  _361
REMARK  144  A    between atoms: _365  and  _367
REMARK  145  A    between atoms: _367  and  _368
REMARK  146  A    between atoms: _367  and  _370
REMARK  147  A    between atoms: _370  and  _371
REMARK  148  A    between atoms: _374  and  _376
REMARK  149  A    between atoms: _376  and  _377
REMARK  150  A    between atoms: _380  and  _382
REMARK  151  A    between atoms: _382  and  _383
REMARK  152  A    between atoms: _385  and  _387
REMARK  153  A    between atoms: _387  and  _388
REMARK  154  A    between atoms: _387  and  _390
REMARK  155  A    between atoms: _390  and  _391
REMARK  156  A    between atoms: _394  and  _396
REMARK  157  A    between atoms: _396  and  _397
REMARK  158  A    between atoms: _396  and  _399
REMARK  159  A    between atoms: _399  and  _400
REMARK  160  A    between atoms: _403  and  _405
REMARK  161  A    between atoms: _405  and  _406
REMARK  162  A    between atoms: _409  and  _411
REMARK  163  A    between atoms: _411  and  _412
REMARK  164  A    between atoms: _411  and  _414
REMARK  165  A    between atoms: _414  and  _415
REMARK  166  A    between atoms: _415  and  _416
REMARK  167  A    between atoms: _419  and  _421
REMARK  168  A    between atoms: _421  and  _422
REMARK  169  A    between atoms: _421  and  _424
REMARK  170  A    between atoms: _427  and  _429
REMARK  171  A    between atoms: _429  and  _430
REMARK  172  A    between atoms: _429  and  _432
REMARK  173  A    between atoms: _432  and  _433
REMARK  174  A    between atoms: _436  and  _438
REMARK  175  A    between atoms: _438  and  _439
REMARK  176  A    between atoms: _441  and  _443
REMARK  177  A    between atoms: _443  and  _444
REMARK  178  A    between atoms: _443  and  _446
REMARK  179  A    between atoms: _449  and  _451
REMARK  180  A    between atoms: _451  and  _452
REMARK  181  A    between atoms: _454  and  _456
REMARK  182  A    between atoms: _456  and  _457
REMARK  183  A    between atoms: _456  and  _459
REMARK  184  A    between atoms: _459  and  _460
REMARK  185  A    between atoms: _463  and  _465
REMARK  186  A    between atoms: _465  and  _466
REMARK  187  A    between atoms: _465  and  _468
REMARK  188  A    between atoms: _468  and  _469
REMARK  189  A    between atoms: _474  and  _476
REMARK  190  A    between atoms: _476  and  _477
REMARK  191  A    between atoms: _476  and  _479
REMARK  192  A    between atoms: _482  and  _484
REMARK  193  A    between atoms: _484  and  _485
REMARK  194  A    between atoms: _484  and  _487
REMARK  195  A    between atoms: _487  and  _488
REMARK  196  A    between atoms: _488  and  _489
REMARK  197  A    between atoms: _494  and  _496
REMARK  198  A    between atoms: _496  and  _497
REMARK  199  A    between atoms: _501  and  _502
REMARK  200  A    between atoms: _507  and  _509
REMARK  201  A    between atoms: _509  and  _510
REMARK  202  A    between atoms: _509  and  _512
REMARK  203  A    between atoms: _512  and  _513
REMARK  204  A    between atoms: _513  and  _514
REMARK  205  A    between atoms: _517  and  _519
REMARK  206  A    between atoms: _519  and  _520
REMARK  207  A    between atoms: _519  and  _522
REMARK  208  A    between atoms: _525  and  _527
REMARK  209  A    between atoms: _527  and  _528
REMARK  210  A    between atoms: _527  and  _530
REMARK  211  A    between atoms: _530  and  _531
REMARK  212  A    between atoms: _535  and  _536
REMARK  213  A    between atoms: _541  and  _543
REMARK  214  A    between atoms: _543  and  _544
REMARK  215  A    between atoms: _543  and  _546
REMARK  216  A    between atoms: _546  and  _547
REMARK  217  A    between atoms: _550  and  _552
REMARK  218  A    between atoms: _552  and  _553
REMARK  219  A    between atoms: _556  and  _558
REMARK  220  A    between atoms: _558  and  _559
REMARK  221  A    between atoms: _558  and  _561
REMARK  222  A    between atoms: _561  and  _562
REMARK  223  A    between atoms: _565  and  _567
REMARK  224  A    between atoms: _567  and  _568
REMARK  225  A    between atoms: _567  and  _570
REMARK  226  A    between atoms: _570  and  _571
REMARK  227  A    between atoms: _573  and  _575
REMARK  228  A    between atoms: _575  and  _576
REMARK  229  A    between atoms: _578  and  _580
REMARK  230  A    between atoms: _580  and  _581
REMARK  231  A    between atoms: _580  and  _583
REMARK  232  A    between atoms: _583  and  _584
REMARK  233  A    between atoms: _587  and  _589
REMARK  234  A    between atoms: _589  and  _590
REMARK  235  A    between atoms: _589  and  _592
REMARK                            x       y       z     vdW  Elec       q    Type
REMARK                         _______ _______ _______ _____ _____    ______ ____
ROOT
ATOM      1  O   HOH     1      -0.394  -4.030  17.412  0.00  0.00    +0.000 OA
ENDROOT
TORSDOF 0
REMARK  Name = ../refined-set-2016/4xtv/4xtv_pocket.pdb
REMARK  235 active torsions:
REMARK  status: ('A' for Active; 'I' for Inactive)
REMARK    1  A    between atoms: _1  and  _3
REMARK    2  A    between atoms: _3  and  _4
REMARK    3  A    between atoms: _3  and  _6
REMARK    4  A    between atoms: _6  and  _7
REMARK    5  A    between atoms: _10  and  _12
REMARK    6  A    between atoms: _12  and  _13
REMARK    7  A    between atoms: _15  and  _17
REMARK    8  A    between atoms: _17  and  _18
REMARK    9  A    between atoms: _17  and  _20
REMARK   10  A    between atoms: _20  and  _21
REMARK   11  A    between atoms: _23  and  _25
REMARK   12  A    between atoms: _25  and  _26
REMARK   13  A    between atoms: _25  and  _28
REMARK   14  A    between atoms: _28  and  _29
REMARK   15  A    between atoms: _32  and  _34
REMARK   16  A    between atoms: _34  and  _35
REMARK   17  A    between atoms: _34  and  _37
REMARK   18  A    between atoms: _37  and  _38
REMARK   19  A    between atoms: _43  and  _45
REMARK   20  A    between atoms: _45  and  _46
REMARK   21  A    between atoms: _49  and  _51
REMARK   22  A    between atoms: _51  and  _52
REMARK   23  A    between atoms: _51  and  _54
REMARK   24  A    between atoms: _54  and  _55
REMARK   25  A    between atoms: _58  and  _60
REMARK   26  A    between atoms: _60  and  _61
REMARK   27  A    between atoms: _60  and  _63
REMARK   28  A    between atoms: _63  and  _64
REMARK   29  A    between atoms: _67  and  _69
REMARK   30  A    between atoms: _69  and  _70
REMARK   31  A    between atoms: _69  and  _72
REMARK   32  A    between atoms: _72  and  _73
REMARK   33  A    between atoms: _76  and  _78
REMARK   34  A    between atoms: _78  and  _79
REMARK   35  A    between atoms: _82  and  _84
REMARK   36  A    between atoms: _84  and  _85
REMARK   37  A    between atoms: _84  and  _87
REMARK   38  A    between atoms: _87  and  _88
REMARK   39  A    between atoms: _88  and  _89
REMARK   40  A    between atoms: _94  and  _96
REMARK   41  A    between atoms: _96  and  _97
REMARK   42  A    between atoms: _96  and  _99
REMARK   43  A    between atoms: _99  and  _100
REMARK   44  A    between atoms: _103  and  _105
REMARK   45  A    between atoms: _105  and  _106
REMARK   46  A    between atoms: _109  and  _111
REMARK   47  A    between atoms: _111  and  _112
REMARK   48  A    between atoms: _114  and  _116
REMARK   49  A    between atoms: _116  and  _117
REMARK   50  A    between atoms: _116  and  _119
REMARK   51  A    between atoms: _119  and  _120
REMARK   52  A    between atoms: _120  and  _121
REMARK   53  A    between atoms: _121  and  _122
REMARK   54  A    between atoms: _131  and  _133
REMARK   55  A    between atoms: _133  and  _134
REMARK   56  A    between atoms: _136  and  _138
REMARK   57  A    between atoms: _138  and  _139
REMARK   58  A    between atoms: _138  and  _141
REMARK   59  A    between atoms: _141  and  _142
REMARK   60  A    between atoms: _142  and  _143
REMARK   61  A    between atoms: _143  and  _144
REMARK   62  A    between atoms: _153  and  _155
REMARK   63  A    between atoms: _155  and  _156
REMARK   64  A    between atoms: _155  and  _158
REMARK   65  A    between atoms: _158  and  _159
REMARK   66  A    between atoms: _164  and  _166
REMARK   67  A    between atoms: _166  and  _167
REMARK   68  A    between atoms: _169  and  _171
REMARK   69  A    between atoms: _171  and  _172
REMARK   70  A    between atoms: _171  and  _174
REMARK   71  A    between atoms: _174  and  _175
REMARK   72  A    between atoms: _175  and  _176
REMARK   73  A    between atoms: _176  and  _177
REMARK   74  A    between atoms: _186  and  _188
REMARK   75  A    between atoms: _188  and  _189
REMARK   76  A    between atoms: _191  and  _193
REMARK   77  A    between atoms: _193  and  _194
REMARK   78  A    between atoms: _193  and  _196
REMARK   79  A    between atoms: _196  and  _197
REMARK   80  A    between atoms: _207  and  _209
REMARK   81  A    between atoms: _209  and  _210
REMARK   82  A    between atoms: _213  and  _215
REMARK   83  A    between atoms: _215  and  _216
REMARK   84  A    between atoms: _219  and  _221
REMARK   85  A    between atoms: _221  and  _222
REMARK   86  A    between atoms: _221  and  _224
REMARK   87  A    between atoms: _224  and  _225
REMARK   88  A    between atoms: _228  and  _230
REMARK   89  A    between atoms: _230  and  _231
REMARK   90  A    between atoms: _230  and  _233
REMARK   91  A    between atoms: _233  and  _234
REMARK   92  A    between atoms: _234  and  _235
REMARK   93  A    between atoms: _240  and  _242
REMARK   94  A    between atoms: _242  and  _243
REMARK   95  A    between atoms: _242  and  _245
REMARK   96  A    between atoms: _245  and  _246
REMARK   97  A    between atoms: _249  and  _251
REMARK   98  A    between atoms: _251  and  _252
REMARK   99  A    between atoms: _251  and  _254
REMARK  100  A    between atoms: _254  and  _255
REMARK  101  A    between atoms: _258  and  _260
REMARK  102  A    between atoms: _260  and  _261
REMARK  103  A    between atoms: _260  and  _263
REMARK  104  A    between atoms: _263  and  _264
REMARK  105  A    between atoms: _267  and  _269
REMARK  106  A    between atoms: _269  and  _270
REMARK  107  A    between atoms: _269  and  _272
REMARK  108  A    between atoms: _272  and  _273
REMARK  109  A    between atoms: _275  and  _277
REMARK  110  A    between atoms: _277  and  _278
REMARK  111  A    between atoms: _277  and  _280
REMARK  112  A    between atoms: _283  and  _285
REMARK  113  A    between atoms: _285  and  _286
REMARK  114  A    between atoms: _285  and  _288
REMARK  115  A    between atoms: _288  and  _289
REMARK  116  A    between atoms: _289  and  _290
REMARK  117  A    between atoms: _290  and  _291
REMARK  118  A    between atoms: _291  and  _292
REMARK  119  A    between atoms: _296  and  _298
REMARK  120  A    between atoms: _298  and  _299
REMARK  121  A    between atoms: _298  and  _301
REMARK  122  A    between atoms: _301  and  _302
REMARK  123  A    between atoms: _313  and  _314
REMARK  124  A    between atoms: _319  and  _321
REMARK  125  A    between atoms: _321  and  _322
REMARK  126  A    between atoms: _321  and  _324
REMARK  127  A    between atoms: _324  and  _325
REMARK  128  A    between atoms: _330  and  _332
REMARK  129  A    between atoms: _332  and  _333
REMARK  130  A    between atoms: _332  and  _335
REMARK  131  A    between atoms: _335  and  _336
REMARK  132  A    between atoms: _339  and  _341
REMARK  133  A    between atoms: _341  and  _342
REMARK  134  A    between atoms: _341  and  _344
REMARK  135  A    between atoms: _347  and  _349
REMARK  136  A    between atoms: _349  and  _350
REMARK  137  A    between atoms: _352  and  _354
REMARK  138  A    between atoms: _354  and  _355
REMARK  139  A    between atoms: _354  and  _357
REMARK  140  A    between atoms: _357  and  _358
REMARK  141  A    between atoms: _358  and  _359
REMARK  142  A    between atoms: _359  and  _360
REMARK  143  A    between atoms: _360  and  _361
REMARK  144  A    between atoms: _365  and  _367
REMARK  145  A    between atoms: _367  and  _368
REMARK  146  A    between atoms: _367  and  _370
REMARK  147  A    between atoms: _370  and  _371
REMARK  148  A    between atoms: _374  and  _376
REMARK  149  A    between atoms: _376  and  _377
REMARK  150  A    between atoms: _380  and  _382
REMARK  151  A    between atoms: _382  and  _383
REMARK  152  A    between atoms: _385  and  _387
REMARK  153  A    between atoms: _387  and  _388
REMARK  154  A    between atoms: _387  and  _390
REMARK  155  A    between atoms: _390  and  _391
REMARK  156  A    between atoms: _394  and  _396
REMARK  157  A    between atoms: _396  and  _397
REMARK  158  A    between atoms: _396  and  _399
REMARK  159  A    between atoms: _399  and  _400
REMARK  160  A    between atoms: _403  and  _405
REMARK  161  A    between atoms: _405  and  _406
REMARK  162  A    between atoms: _409  and  _411
REMARK  163  A    between atoms: _411  and  _412
REMARK  164  A    between atoms: _411  and  _414
REMARK  165  A    between atoms: _414  and  _415
REMARK  166  A    between atoms: _415  and  _416
REMARK  167  A    between atoms: _419  and  _421
REMARK  168  A    between atoms: _421  and  _422
REMARK  169  A    between atoms: _421  and  _424
REMARK  170  A    between atoms: _427  and  _429
REMARK  171  A    between atoms: _429  and  _430
REMARK  172  A    between atoms: _429  and  _432
REMARK  173  A    between atoms: _432  and  _433
REMARK  174  A    between atoms: _436  and  _438
REMARK  175  A    between atoms: _438  and  _439
REMARK  176  A    between atoms: _441  and  _443
REMARK  177  A    between atoms: _443  and  _444
REMARK  178  A    between atoms: _443  and  _446
REMARK  179  A    between atoms: _449  and  _451
REMARK  180  A    between atoms: _451  and  _452
REMARK  181  A    between atoms: _454  and  _456
REMARK  182  A    between atoms: _456  and  _457
REMARK  183  A    between atoms: _456  and  _459
REMARK  184  A    between atoms: _459  and  _460
REMARK  185  A    between atoms: _463  and  _465
REMARK  186  A    between atoms: _465  and  _466
REMARK  187  A    between atoms: _465  and  _468
REMARK  188  A    between atoms: _468  and  _469
REMARK  189  A    between atoms: _474  and  _476
REMARK  190  A    between atoms: _476  and  _477
REMARK  191  A    between atoms: _476  and  _479
REMARK  192  A    between atoms: _482  and  _484
REMARK  193  A    between atoms: _484  and  _485
REMARK  194  A    between atoms: _484  and  _487
REMARK  195  A    between atoms: _487  and  _488
REMARK  196  A    between atoms: _488  and  _489
REMARK  197  A    between atoms: _494  and  _496
REMARK  198  A    between atoms: _496  and  _497
REMARK  199  A    between atoms: _501  and  _502
REMARK  200  A    between atoms: _507  and  _509
REMARK  201  A    between atoms: _509  and  _510
REMARK  202  A    between atoms: _509  and  _512
REMARK  203  A    between atoms: _512  and  _513
REMARK  204  A    between atoms: _513  and  _514
REMARK  205  A    between atoms: _517  and  _519
REMARK  206  A    between atoms: _519  and  _520
REMARK  207  A    between atoms: _519  and  _522
REMARK  208  A    between atoms: _525  and  _527
REMARK  209  A    between atoms: _527  and  _528
REMARK  210  A    between atoms: _527  and  _530
REMARK  211  A    between atoms: _530  and  _531
REMARK  212  A    between atoms: _535  and  _536
REMARK  213  A    between atoms: _541  and  _543
REMARK  214  A    between atoms: _543  and  _544
REMARK  215  A    between atoms: _543  and  _546
REMARK  216  A    between atoms: _546  and  _547
REMARK  217  A    between atoms: _550  and  _552
REMARK  218  A    between atoms: _552  and  _553
REMARK  219  A    between atoms: _556  and  _558
REMARK  220  A    between atoms: _558  and  _559
REMARK  221  A    between atoms: _558  and  _561
REMARK  222  A    between atoms: _561  and  _562
REMARK  223  A    between atoms: _565  and  _567
REMARK  224  A    between atoms: _567  and  _568
REMARK  225  A    between atoms: _567  and  _570
REMARK  226  A    between atoms: _570  and  _571
REMARK  227  A    between atoms: _573  and  _575
REMARK  228  A    between atoms: _575  and  _576
REMARK  229  A    between atoms: _578  and  _580
REMARK  230  A    between atoms: _580  and  _581
REMARK  231  A    between atoms: _580  and  _583
REMARK  232  A    between atoms: _583  and  _584
REMARK  233  A    between atoms: _587  and  _589
REMARK  234  A    between atoms: _589  and  _590
REMARK  235  A    between atoms: _589  and  _592
REMARK                            x       y       z     vdW  Elec       q    Type
REMARK                         _______ _______ _______ _____ _____    ______ ____
ROOT
ATOM      1  O   HOH     1       6.880  -7.516  15.157  0.00  0.00    +0.000 OA
ENDROOT
TORSDOF 0
REMARK  Name = ../refined-set-2016/4xtv/4xtv_pocket.pdb
REMARK  235 active torsions:
REMARK  status: ('A' for Active; 'I' for Inactive)
REMARK    1  A    between atoms: _1  and  _3
REMARK    2  A    between atoms: _3  and  _4
REMARK    3  A    between atoms: _3  and  _6
REMARK    4  A    between atoms: _6  and  _7
REMARK    5  A    between atoms: _10  and  _12
REMARK    6  A    between atoms: _12  and  _13
REMARK    7  A    between atoms: _15  and  _17
REMARK    8  A    between atoms: _17  and  _18
REMARK    9  A    between atoms: _17  and  _20
REMARK   10  A    between atoms: _20  and  _21
REMARK   11  A    between atoms: _23  and  _25
REMARK   12  A    between atoms: _25  and  _26
REMARK   13  A    between atoms: _25  and  _28
REMARK   14  A    between atoms: _28  and  _29
REMARK   15  A    between atoms: _32  and  _34
REMARK   16  A    between atoms: _34  and  _35
REMARK   17  A    between atoms: _34  and  _37
REMARK   18  A    between atoms: _37  and  _38
REMARK   19  A    between atoms: _43  and  _45
REMARK   20  A    between atoms: _45  and  _46
REMARK   21  A    between atoms: _49  and  _51
REMARK   22  A    between atoms: _51  and  _52
REMARK   23  A    between atoms: _51  and  _54
REMARK   24  A    between atoms: _54  and  _55
REMARK   25  A    between atoms: _58  and  _60
REMARK   26  A    between atoms: _60  and  _61
REMARK   27  A    between atoms: _60  and  _63
REMARK   28  A    between atoms: _63  and  _64
REMARK   29  A    between atoms: _67  and  _69
REMARK   30  A    between atoms: _69  and  _70
REMARK   31  A    between atoms: _69  and  _72
REMARK   32  A    between atoms: _72  and  _73
REMARK   33  A    between atoms: _76  and  _78
REMARK   34  A    between atoms: _78  and  _79
REMARK   35  A    between atoms: _82  and  _84
REMARK   36  A    between atoms: _84  and  _85
REMARK   37  A    between atoms: _84  and  _87
REMARK   38  A    between atoms: _87  and  _88
REMARK   39  A    between atoms: _88  and  _89
REMARK   40  A    between atoms: _94  and  _96
REMARK   41  A    between atoms: _96  and  _97
REMARK   42  A    between atoms: _96  and  _99
REMARK   43  A    between atoms: _99  and  _100
REMARK   44  A    between atoms: _103  and  _105
REMARK   45  A    between atoms: _105  and  _106
REMARK   46  A    between atoms: _109  and  _111
REMARK   47  A    between atoms: _111  and  _112
REMARK   48  A    between atoms: _114  and  _116
REMARK   49  A    between atoms: _116  and  _117
REMARK   50  A    between atoms: _116  and  _119
REMARK   51  A    between atoms: _119  and  _120
REMARK   52  A    between atoms: _120  and  _121
REMARK   53  A    between atoms: _121  and  _122
REMARK   54  A    between atoms: _131  and  _133
REMARK   55  A    between atoms: _133  and  _134
REMARK   56  A    between atoms: _136  and  _138
REMARK   57  A    between atoms: _138  and  _139
REMARK   58  A    between atoms: _138  and  _141
REMARK   59  A    between atoms: _141  and  _142
REMARK   60  A    between atoms: _142  and  _143
REMARK   61  A    between atoms: _143  and  _144
REMARK   62  A    between atoms: _153  and  _155
REMARK   63  A    between atoms: _155  and  _156
REMARK   64  A    between atoms: _155  and  _158
REMARK   65  A    between atoms: _158  and  _159
REMARK   66  A    between atoms: _164  and  _166
REMARK   67  A    between atoms: _166  and  _167
REMARK   68  A    between atoms: _169  and  _171
REMARK   69  A    between atoms: _171  and  _172
REMARK   70  A    between atoms: _171  and  _174
REMARK   71  A    between atoms: _174  and  _175
REMARK   72  A    between atoms: _175  and  _176
REMARK   73  A    between atoms: _176  and  _177
REMARK   74  A    between atoms: _186  and  _188
REMARK   75  A    between atoms: _188  and  _189
REMARK   76  A    between atoms: _191  and  _193
REMARK   77  A    between atoms: _193  and  _194
REMARK   78  A    between atoms: _193  and  _196
REMARK   79  A    between atoms: _196  and  _197
REMARK   80  A    between atoms: _207  and  _209
REMARK   81  A    between atoms: _209  and  _210
REMARK   82  A    between atoms: _213  and  _215
REMARK   83  A    between atoms: _215  and  _216
REMARK   84  A    between atoms: _219  and  _221
REMARK   85  A    between atoms: _221  and  _222
REMARK   86  A    between atoms: _221  and  _224
REMARK   87  A    between atoms: _224  and  _225
REMARK   88  A    between atoms: _228  and  _230
REMARK   89  A    between atoms: _230  and  _231
REMARK   90  A    between atoms: _230  and  _233
REMARK   91  A    between atoms: _233  and  _234
REMARK   92  A    between atoms: _234  and  _235
REMARK   93  A    between atoms: _240  and  _242
REMARK   94  A    between atoms: _242  and  _243
REMARK   95  A    between atoms: _242  and  _245
REMARK   96  A    between atoms: _245  and  _246
REMARK   97  A    between atoms: _249  and  _251
REMARK   98  A    between atoms: _251  and  _252
REMARK   99  A    between atoms: _251  and  _254
REMARK  100  A    between atoms: _254  and  _255
REMARK  101  A    between atoms: _258  and  _260
REMARK  102  A    between atoms: _260  and  _261
REMARK  103  A    between atoms: _260  and  _263
REMARK  104  A    between atoms: _263  and  _264
REMARK  105  A    between atoms: _267  and  _269
REMARK  106  A    between atoms: _269  and  _270
REMARK  107  A    between atoms: _269  and  _272
REMARK  108  A    between atoms: _272  and  _273
REMARK  109  A    between atoms: _275  and  _277
REMARK  110  A    between atoms: _277  and  _278
REMARK  111  A    between atoms: _277  and  _280
REMARK  112  A    between atoms: _283  and  _285
REMARK  113  A    between atoms: _285  and  _286
REMARK  114  A    between atoms: _285  and  _288
REMARK  115  A    between atoms: _288  and  _289
REMARK  116  A    between atoms: _289  and  _290
REMARK  117  A    between atoms: _290  and  _291
REMARK  118  A    between atoms: _291  and  _292
REMARK  119  A    between atoms: _296  and  _298
REMARK  120  A    between atoms: _298  and  _299
REMARK  121  A    between atoms: _298  and  _301
REMARK  122  A    between atoms: _301  and  _302
REMARK  123  A    between atoms: _313  and  _314
REMARK  124  A    between atoms: _319  and  _321
REMARK  125  A    between atoms: _321  and  _322
REMARK  126  A    between atoms: _321  and  _324
REMARK  127  A    between atoms: _324  and  _325
REMARK  128  A    between atoms: _330  and  _332
REMARK  129  A    between atoms: _332  and  _333
REMARK  130  A    between atoms: _332  and  _335
REMARK  131  A    between atoms: _335  and  _336
REMARK  132  A    between atoms: _339  and  _341
REMARK  133  A    between atoms: _341  and  _342
REMARK  134  A    between atoms: _341  and  _344
REMARK  135  A    between atoms: _347  and  _349
REMARK  136  A    between atoms: _349  and  _350
REMARK  137  A    between atoms: _352  and  _354
REMARK  138  A    between atoms: _354  and  _355
REMARK  139  A    between atoms: _354  and  _357
REMARK  140  A    between atoms: _357  and  _358
REMARK  141  A    between atoms: _358  and  _359
REMARK  142  A    between atoms: _359  and  _360
REMARK  143  A    between atoms: _360  and  _361
REMARK  144  A    between atoms: _365  and  _367
REMARK  145  A    between atoms: _367  and  _368
REMARK  146  A    between atoms: _367  and  _370
REMARK  147  A    between atoms: _370  and  _371
REMARK  148  A    between atoms: _374  and  _376
REMARK  149  A    between atoms: _376  and  _377
REMARK  150  A    between atoms: _380  and  _382
REMARK  151  A    between atoms: _382  and  _383
REMARK  152  A    between atoms: _385  and  _387
REMARK  153  A    between atoms: _387  and  _388
REMARK  154  A    between atoms: _387  and  _390
REMARK  155  A    between atoms: _390  and  _391
REMARK  156  A    between atoms: _394  and  _396
REMARK  157  A    between atoms: _396  and  _397
REMARK  158  A    between atoms: _396  and  _399
REMARK  159  A    between atoms: _399  and  _400
REMARK  160  A    between atoms: _403  and  _405
REMARK  161  A    between atoms: _405  and  _406
REMARK  162  A    between atoms: _409  and  _411
REMARK  163  A    between atoms: _411  and  _412
REMARK  164  A    between atoms: _411  and  _414
REMARK  165  A    between atoms: _414  and  _415
REMARK  166  A    between atoms: _415  and  _416
REMARK  167  A    between atoms: _419  and  _421
REMARK  168  A    between atoms: _421  and  _422
REMARK  169  A    between atoms: _421  and  _424
REMARK  170  A    between atoms: _427  and  _429
REMARK  171  A    between atoms: _429  and  _430
REMARK  172  A    between atoms: _429  and  _432
REMARK  173  A    between atoms: _432  and  _433
REMARK  174  A    between atoms: _436  and  _438
REMARK  175  A    between atoms: _438  and  _439
REMARK  176  A    between atoms: _441  and  _443
REMARK  177  A    between atoms: _443  and  _444
REMARK  178  A    between atoms: _443  and  _446
REMARK  179  A    between atoms: _449  and  _451
REMARK  180  A    between atoms: _451  and  _452
REMARK  181  A    between atoms: _454  and  _456
REMARK  182  A    between atoms: _456  and  _457
REMARK  183  A    between atoms: _456  and  _459
REMARK  184  A    between atoms: _459  and  _460
REMARK  185  A    between atoms: _463  and  _465
REMARK  186  A    between atoms: _465  and  _466
REMARK  187  A    between atoms: _465  and  _468
REMARK  188  A    between atoms: _468  and  _469
REMARK  189  A    between atoms: _474  and  _476
REMARK  190  A    between atoms: _476  and  _477
REMARK  191  A    between atoms: _476  and  _479
REMARK  192  A    between atoms: _482  and  _484
REMARK  193  A    between atoms: _484  and  _485
REMARK  194  A    between atoms: _484  and  _487
REMARK  195  A    between atoms: _487  and  _488
REMARK  196  A    between atoms: _488  and  _489
REMARK  197  A    between atoms: _494  and  _496
REMARK  198  A    between atoms: _496  and  _497
REMARK  199  A    between atoms: _501  and  _502
REMARK  200  A    between atoms: _507  and  _509
REMARK  201  A    between atoms: _509  and  _510
REMARK  202  A    between atoms: _509  and  _512
REMARK  203  A    between atoms: _512  and  _513
REMARK  204  A    between atoms: _513  and  _514
REMARK  205  A    between atoms: _517  and  _519
REMARK  206  A    between atoms: _519  and  _520
REMARK  207  A    between atoms: _519  and  _522
REMARK  208  A    between atoms: _525  and  _527
REMARK  209  A    between atoms: _527  and  _528
REMARK  210  A    between atoms: _527  and  _530
REMARK  211  A    between atoms: _530  and  _531
REMARK  212  A    between atoms: _535  and  _536
REMARK  213  A    between atoms: _541  and  _543
REMARK  214  A    between atoms: _543  and  _544
REMARK  215  A    between atoms: _543  and  _546
REMARK  216  A    between atoms: _546  and  _547
REMARK  217  A    between atoms: _550  and  _552
REMARK  218  A    between atoms: _552  and  _553
REMARK  219  A    between atoms: _556  and  _558
REMARK  220  A    between atoms: _558  and  _559
REMARK  221  A    between atoms: _558  and  _561
REMARK  222  A    between atoms: _561  and  _562
REMARK  223  A    between atoms: _565  and  _567
REMARK  224  A    between atoms: _567  and  _568
REMARK  225  A    between atoms: _567  and  _570
REMARK  226  A    between atoms: _570  and  _571
REMARK  227  A    between atoms: _573  and  _575
REMARK  228  A    between atoms: _575  and  _576
REMARK  229  A    between atoms: _578  and  _580
REMARK  230  A    between atoms: _580  and  _581
REMARK  231  A    between atoms: _580  and  _583
REMARK  232  A    between atoms: _583  and  _584
REMARK  233  A    between atoms: _587  and  _589
REMARK  234  A    between atoms: _589  and  _590
REMARK  235  A    between atoms: _589  and  _592
REMARK                            x       y       z     vdW  Elec       q    Type
REMARK                         _______ _______ _______ _____ _____    ______ ____
ROOT
ATOM      1  O   HOH     1       0.990  -0.742  18.735  0.00  0.00    +0.000 OA
ENDROOT
TORSDOF 0
REMARK  Name = ../refined-set-2016/4xtv/4xtv_pocket.pdb
REMARK  235 active torsions:
REMARK  status: ('A' for Active; 'I' for Inactive)
REMARK    1  A    between atoms: _1  and  _3
REMARK    2  A    between atoms: _3  and  _4
REMARK    3  A    between atoms: _3  and  _6
REMARK    4  A    between atoms: _6  and  _7
REMARK    5  A    between atoms: _10  and  _12
REMARK    6  A    between atoms: _12  and  _13
REMARK    7  A    between atoms: _15  and  _17
REMARK    8  A    between atoms: _17  and  _18
REMARK    9  A    between atoms: _17  and  _20
REMARK   10  A    between atoms: _20  and  _21
REMARK   11  A    between atoms: _23  and  _25
REMARK   12  A    between atoms: _25  and  _26
REMARK   13  A    between atoms: _25  and  _28
REMARK   14  A    between atoms: _28  and  _29
REMARK   15  A    between atoms: _32  and  _34
REMARK   16  A    between atoms: _34  and  _35
REMARK   17  A    between atoms: _34  and  _37
REMARK   18  A    between atoms: _37  and  _38
REMARK   19  A    between atoms: _43  and  _45
REMARK   20  A    between atoms: _45  and  _46
REMARK   21  A    between atoms: _49  and  _51
REMARK   22  A    between atoms: _51  and  _52
REMARK   23  A    between atoms: _51  and  _54
REMARK   24  A    between atoms: _54  and  _55
REMARK   25  A    between atoms: _58  and  _60
REMARK   26  A    between atoms: _60  and  _61
REMARK   27  A    between atoms: _60  and  _63
REMARK   28  A    between atoms: _63  and  _64
REMARK   29  A    between atoms: _67  and  _69
REMARK   30  A    between atoms: _69  and  _70
REMARK   31  A    between atoms: _69  and  _72
REMARK   32  A    between atoms: _72  and  _73
REMARK   33  A    between atoms: _76  and  _78
REMARK   34  A    between atoms: _78  and  _79
REMARK   35  A    between atoms: _82  and  _84
REMARK   36  A    between atoms: _84  and  _85
REMARK   37  A    between atoms: _84  and  _87
REMARK   38  A    between atoms: _87  and  _88
REMARK   39  A    between atoms: _88  and  _89
REMARK   40  A    between atoms: _94  and  _96
REMARK   41  A    between atoms: _96  and  _97
REMARK   42  A    between atoms: _96  and  _99
REMARK   43  A    between atoms: _99  and  _100
REMARK   44  A    between atoms: _103  and  _105
REMARK   45  A    between atoms: _105  and  _106
REMARK   46  A    between atoms: _109  and  _111
REMARK   47  A    between atoms: _111  and  _112
REMARK   48  A    between atoms: _114  and  _116
REMARK   49  A    between atoms: _116  and  _117
REMARK   50  A    between atoms: _116  and  _119
REMARK   51  A    between atoms: _119  and  _120
REMARK   52  A    between atoms: _120  and  _121
REMARK   53  A    between atoms: _121  and  _122
REMARK   54  A    between atoms: _131  and  _133
REMARK   55  A    between atoms: _133  and  _134
REMARK   56  A    between atoms: _136  and  _138
REMARK   57  A    between atoms: _138  and  _139
REMARK   58  A    between atoms: _138  and  _141
REMARK   59  A    between atoms: _141  and  _142
REMARK   60  A    between atoms: _142  and  _143
REMARK   61  A    between atoms: _143  and  _144
REMARK   62  A    between atoms: _153  and  _155
REMARK   63  A    between atoms: _155  and  _156
REMARK   64  A    between atoms: _155  and  _158
REMARK   65  A    between atoms: _158  and  _159
REMARK   66  A    between atoms: _164  and  _166
REMARK   67  A    between atoms: _166  and  _167
REMARK   68  A    between atoms: _169  and  _171
REMARK   69  A    between atoms: _171  and  _172
REMARK   70  A    between atoms: _171  and  _174
REMARK   71  A    between atoms: _174  and  _175
REMARK   72  A    between atoms: _175  and  _176
REMARK   73  A    between atoms: _176  and  _177
REMARK   74  A    between atoms: _186  and  _188
REMARK   75  A    between atoms: _188  and  _189
REMARK   76  A    between atoms: _191  and  _193
REMARK   77  A    between atoms: _193  and  _194
REMARK   78  A    between atoms: _193  and  _196
REMARK   79  A    between atoms: _196  and  _197
REMARK   80  A    between atoms: _207  and  _209
REMARK   81  A    between atoms: _209  and  _210
REMARK   82  A    between atoms: _213  and  _215
REMARK   83  A    between atoms: _215  and  _216
REMARK   84  A    between atoms: _219  and  _221
REMARK   85  A    between atoms: _221  and  _222
REMARK   86  A    between atoms: _221  and  _224
REMARK   87  A    between atoms: _224  and  _225
REMARK   88  A    between atoms: _228  and  _230
REMARK   89  A    between atoms: _230  and  _231
REMARK   90  A    between atoms: _230  and  _233
REMARK   91  A    between atoms: _233  and  _234
REMARK   92  A    between atoms: _234  and  _235
REMARK   93  A    between atoms: _240  and  _242
REMARK   94  A    between atoms: _242  and  _243
REMARK   95  A    between atoms: _242  and  _245
REMARK   96  A    between atoms: _245  and  _246
REMARK   97  A    between atoms: _249  and  _251
REMARK   98  A    between atoms: _251  and  _252
REMARK   99  A    between atoms: _251  and  _254
REMARK  100  A    between atoms: _254  and  _255
REMARK  101  A    between atoms: _258  and  _260
REMARK  102  A    between atoms: _260  and  _261
REMARK  103  A    between atoms: _260  and  _263
REMARK  104  A    between atoms: _263  and  _264
REMARK  105  A    between atoms: _267  and  _269
REMARK  106  A    between atoms: _269  and  _270
REMARK  107  A    between atoms: _269  and  _272
REMARK  108  A    between atoms: _272  and  _273
REMARK  109  A    between atoms: _275  and  _277
REMARK  110  A    between atoms: _277  and  _278
REMARK  111  A    between atoms: _277  and  _280
REMARK  112  A    between atoms: _283  and  _285
REMARK  113  A    between atoms: _285  and  _286
REMARK  114  A    between atoms: _285  and  _288
REMARK  115  A    between atoms: _288  and  _289
REMARK  116  A    between atoms: _289  and  _290
REMARK  117  A    between atoms: _290  and  _291
REMARK  118  A    between atoms: _291  and  _292
REMARK  119  A    between atoms: _296  and  _298
REMARK  120  A    between atoms: _298  and  _299
REMARK  121  A    between atoms: _298  and  _301
REMARK  122  A    between atoms: _301  and  _302
REMARK  123  A    between atoms: _313  and  _314
REMARK  124  A    between atoms: _319  and  _321
REMARK  125  A    between atoms: _321  and  _322
REMARK  126  A    between atoms: _321  and  _324
REMARK  127  A    between atoms: _324  and  _325
REMARK  128  A    between atoms: _330  and  _332
REMARK  129  A    between atoms: _332  and  _333
REMARK  130  A    between atoms: _332  and  _335
REMARK  131  A    between atoms: _335  and  _336
REMARK  132  A    between atoms: _339  and  _341
REMARK  133  A    between atoms: _341  and  _342
REMARK  134  A    between atoms: _341  and  _344
REMARK  135  A    between atoms: _347  and  _349
REMARK  136  A    between atoms: _349  and  _350
REMARK  137  A    between atoms: _352  and  _354
REMARK  138  A    between atoms: _354  and  _355
REMARK  139  A    between atoms: _354  and  _357
REMARK  140  A    between atoms: _357  and  _358
REMARK  141  A    between atoms: _358  and  _359
REMARK  142  A    between atoms: _359  and  _360
REMARK  143  A    between atoms: _360  and  _361
REMARK  144  A    between atoms: _365  and  _367
REMARK  145  A    between atoms: _367  and  _368
REMARK  146  A    between atoms: _367  and  _370
REMARK  147  A    between atoms: _370  and  _371
REMARK  148  A    between atoms: _374  and  _376
REMARK  149  A    between atoms: _376  and  _377
REMARK  150  A    between atoms: _380  and  _382
REMARK  151  A    between atoms: _382  and  _383
REMARK  152  A    between atoms: _385  and  _387
REMARK  153  A    between atoms: _387  and  _388
REMARK  154  A    between atoms: _387  and  _390
REMARK  155  A    between atoms: _390  and  _391
REMARK  156  A    between atoms: _394  and  _396
REMARK  157  A    between atoms: _396  and  _397
REMARK  158  A    between atoms: _396  and  _399
REMARK  159  A    between atoms: _399  and  _400
REMARK  160  A    between atoms: _403  and  _405
REMARK  161  A    between atoms: _405  and  _406
REMARK  162  A    between atoms: _409  and  _411
REMARK  163  A    between atoms: _411  and  _412
REMARK  164  A    between atoms: _411  and  _414
REMARK  165  A    between atoms: _414  and  _415
REMARK  166  A    between atoms: _415  and  _416
REMARK  167  A    between atoms: _419  and  _421
REMARK  168  A    between atoms: _421  and  _422
REMARK  169  A    between atoms: _421  and  _424
REMARK  170  A    between atoms: _427  and  _429
REMARK  171  A    between atoms: _429  and  _430
REMARK  172  A    between atoms: _429  and  _432
REMARK  173  A    between atoms: _432  and  _433
REMARK  174  A    between atoms: _436  and  _438
REMARK  175  A    between atoms: _438  and  _439
REMARK  176  A    between atoms: _441  and  _443
REMARK  177  A    between atoms: _443  and  _444
REMARK  178  A    between atoms: _443  and  _446
REMARK  179  A    between atoms: _449  and  _451
REMARK  180  A    between atoms: _451  and  _452
REMARK  181  A    between atoms: _454  and  _456
REMARK  182  A    between atoms: _456  and  _457
REMARK  183  A    between atoms: _456  and  _459
REMARK  184  A    between atoms: _459  and  _460
REMARK  185  A    between atoms: _463  and  _465
REMARK  186  A    between atoms: _465  and  _466
REMARK  187  A    between atoms: _465  and  _468
REMARK  188  A    between atoms: _468  and  _469
REMARK  189  A    between atoms: _474  and  _476
REMARK  190  A    between atoms: _476  and  _477
REMARK  191  A    between atoms: _476  and  _479
REMARK  192  A    between atoms: _482  and  _484
REMARK  193  A    between atoms: _484  and  _485
REMARK  194  A    between atoms: _484  and  _487
REMARK  195  A    between atoms: _487  and  _488
REMARK  196  A    between atoms: _488  and  _489
REMARK  197  A    between atoms: _494  and  _496
REMARK  198  A    between atoms: _496  and  _497
REMARK  199  A    between atoms: _501  and  _502
REMARK  200  A    between atoms: _507  and  _509
REMARK  201  A    between atoms: _509  and  _510
REMARK  202  A    between atoms: _509  and  _512
REMARK  203  A    between atoms: _512  and  _513
REMARK  204  A    between atoms: _513  and  _514
REMARK  205  A    between atoms: _517  and  _519
REMARK  206  A    between atoms: _519  and  _520
REMARK  207  A    between atoms: _519  and  _522
REMARK  208  A    between atoms: _525  and  _527
REMARK  209  A    between atoms: _527  and  _528
REMARK  210  A    between atoms: _527  and  _530
REMARK  211  A    between atoms: _530  and  _531
REMARK  212  A    between atoms: _535  and  _536
REMARK  213  A    between atoms: _541  and  _543
REMARK  214  A    between atoms: _543  and  _544
REMARK  215  A    between atoms: _543  and  _546
REMARK  216  A    between atoms: _546  and  _547
REMARK  217  A    between atoms: _550  and  _552
REMARK  218  A    between atoms: _552  and  _553
REMARK  219  A    between atoms: _556  and  _558
REMARK  220  A    between atoms: _558  and  _559
REMARK  221  A    between atoms: _558  and  _561
REMARK  222  A    between atoms: _561  and  _562
REMARK  223  A    between atoms: _565  and  _567
REMARK  224  A    between atoms: _567  and  _568
REMARK  225  A    between atoms: _567  and  _570
REMARK  226  A    between atoms: _570  and  _571
REMARK  227  A    between atoms: _573  and  _575
REMARK  228  A    between atoms: _575  and  _576
REMARK  229  A    between atoms: _578  and  _580
REMARK  230  A    between atoms: _580  and  _581
REMARK  231  A    between atoms: _580  and  _583
REMARK  232  A    between atoms: _583  and  _584
REMARK  233  A    between atoms: _587  and  _589
REMARK  234  A    between atoms: _589  and  _590
REMARK  235  A    between atoms: _589  and  _592
REMARK                            x       y       z     vdW  Elec       q    Type
REMARK                         _______ _______ _______ _____ _____    ______ ____
ROOT
ATOM      1  O   HOH     1      -1.852  -4.468  -2.508  0.00  0.00    +0.000 OA
ENDROOT
TORSDOF 0
REMARK  Name = ../refined-set-2016/4xtv/4xtv_pocket.pdb
REMARK  235 active torsions:
REMARK  status: ('A' for Active; 'I' for Inactive)
REMARK    1  A    between atoms: _1  and  _3
REMARK    2  A    between atoms: _3  and  _4
REMARK    3  A    between atoms: _3  and  _6
REMARK    4  A    between atoms: _6  and  _7
REMARK    5  A    between atoms: _10  and  _12
REMARK    6  A    between atoms: _12  and  _13
REMARK    7  A    between atoms: _15  and  _17
REMARK    8  A    between atoms: _17  and  _18
REMARK    9  A    between atoms: _17  and  _20
REMARK   10  A    between atoms: _20  and  _21
REMARK   11  A    between atoms: _23  and  _25
REMARK   12  A    between atoms: _25  and  _26
REMARK   13  A    between atoms: _25  and  _28
REMARK   14  A    between atoms: _28  and  _29
REMARK   15  A    between atoms: _32  and  _34
REMARK   16  A    between atoms: _34  and  _35
REMARK   17  A    between atoms: _34  and  _37
REMARK   18  A    between atoms: _37  and  _38
REMARK   19  A    between atoms: _43  and  _45
REMARK   20  A    between atoms: _45  and  _46
REMARK   21  A    between atoms: _49  and  _51
REMARK   22  A    between atoms: _51  and  _52
REMARK   23  A    between atoms: _51  and  _54
REMARK   24  A    between atoms: _54  and  _55
REMARK   25  A    between atoms: _58  and  _60
REMARK   26  A    between atoms: _60  and  _61
REMARK   27  A    between atoms: _60  and  _63
REMARK   28  A    between atoms: _63  and  _64
REMARK   29  A    between atoms: _67  and  _69
REMARK   30  A    between atoms: _69  and  _70
REMARK   31  A    between atoms: _69  and  _72
REMARK   32  A    between atoms: _72  and  _73
REMARK   33  A    between atoms: _76  and  _78
REMARK   34  A    between atoms: _78  and  _79
REMARK   35  A    between atoms: _82  and  _84
REMARK   36  A    between atoms: _84  and  _85
REMARK   37  A    between atoms: _84  and  _87
REMARK   38  A    between atoms: _87  and  _88
REMARK   39  A    between atoms: _88  and  _89
REMARK   40  A    between atoms: _94  and  _96
REMARK   41  A    between atoms: _96  and  _97
REMARK   42  A    between atoms: _96  and  _99
REMARK   43  A    between atoms: _99  and  _100
REMARK   44  A    between atoms: _103  and  _105
REMARK   45  A    between atoms: _105  and  _106
REMARK   46  A    between atoms: _109  and  _111
REMARK   47  A    between atoms: _111  and  _112
REMARK   48  A    between atoms: _114  and  _116
REMARK   49  A    between atoms: _116  and  _117
REMARK   50  A    between atoms: _116  and  _119
REMARK   51  A    between atoms: _119  and  _120
REMARK   52  A    between atoms: _120  and  _121
REMARK   53  A    between atoms: _121  and  _122
REMARK   54  A    between atoms: _131  and  _133
REMARK   55  A    between atoms: _133  and  _134
REMARK   56  A    between atoms: _136  and  _138
REMARK   57  A    between atoms: _138  and  _139
REMARK   58  A    between atoms: _138  and  _141
REMARK   59  A    between atoms: _141  and  _142
REMARK   60  A    between atoms: _142  and  _143
REMARK   61  A    between atoms: _143  and  _144
REMARK   62  A    between atoms: _153  and  _155
REMARK   63  A    between atoms: _155  and  _156
REMARK   64  A    between atoms: _155  and  _158
REMARK   65  A    between atoms: _158  and  _159
REMARK   66  A    between atoms: _164  and  _166
REMARK   67  A    between atoms: _166  and  _167
REMARK   68  A    between atoms: _169  and  _171
REMARK   69  A    between atoms: _171  and  _172
REMARK   70  A    between atoms: _171  and  _174
REMARK   71  A    between atoms: _174  and  _175
REMARK   72  A    between atoms: _175  and  _176
REMARK   73  A    between atoms: _176  and  _177
REMARK   74  A    between atoms: _186  and  _188
REMARK   75  A    between atoms: _188  and  _189
REMARK   76  A    between atoms: _191  and  _193
REMARK   77  A    between atoms: _193  and  _194
REMARK   78  A    between atoms: _193  and  _196
REMARK   79  A    between atoms: _196  and  _197
REMARK   80  A    between atoms: _207  and  _209
REMARK   81  A    between atoms: _209  and  _210
REMARK   82  A    between atoms: _213  and  _215
REMARK   83  A    between atoms: _215  and  _216
REMARK   84  A    between atoms: _219  and  _221
REMARK   85  A    between atoms: _221  and  _222
REMARK   86  A    between atoms: _221  and  _224
REMARK   87  A    between atoms: _224  and  _225
REMARK   88  A    between atoms: _228  and  _230
REMARK   89  A    between atoms: _230  and  _231
REMARK   90  A    between atoms: _230  and  _233
REMARK   91  A    between atoms: _233  and  _234
REMARK   92  A    between atoms: _234  and  _235
REMARK   93  A    between atoms: _240  and  _242
REMARK   94  A    between atoms: _242  and  _243
REMARK   95  A    between atoms: _242  and  _245
REMARK   96  A    between atoms: _245  and  _246
REMARK   97  A    between atoms: _249  and  _251
REMARK   98  A    between atoms: _251  and  _252
REMARK   99  A    between atoms: _251  and  _254
REMARK  100  A    between atoms: _254  and  _255
REMARK  101  A    between atoms: _258  and  _260
REMARK  102  A    between atoms: _260  and  _261
REMARK  103  A    between atoms: _260  and  _263
REMARK  104  A    between atoms: _263  and  _264
REMARK  105  A    between atoms: _267  and  _269
REMARK  106  A    between atoms: _269  and  _270
REMARK  107  A    between atoms: _269  and  _272
REMARK  108  A    between atoms: _272  and  _273
REMARK  109  A    between atoms: _275  and  _277
REMARK  110  A    between atoms: _277  and  _278
REMARK  111  A    between atoms: _277  and  _280
REMARK  112  A    between atoms: _283  and  _285
REMARK  113  A    between atoms: _285  and  _286
REMARK  114  A    between atoms: _285  and  _288
REMARK  115  A    between atoms: _288  and  _289
REMARK  116  A    between atoms: _289  and  _290
REMARK  117  A    between atoms: _290  and  _291
REMARK  118  A    between atoms: _291  and  _292
REMARK  119  A    between atoms: _296  and  _298
REMARK  120  A    between atoms: _298  and  _299
REMARK  121  A    between atoms: _298  and  _301
REMARK  122  A    between atoms: _301  and  _302
REMARK  123  A    between atoms: _313  and  _314
REMARK  124  A    between atoms: _319  and  _321
REMARK  125  A    between atoms: _321  and  _322
REMARK  126  A    between atoms: _321  and  _324
REMARK  127  A    between atoms: _324  and  _325
REMARK  128  A    between atoms: _330  and  _332
REMARK  129  A    between atoms: _332  and  _333
REMARK  130  A    between atoms: _332  and  _335
REMARK  131  A    between atoms: _335  and  _336
REMARK  132  A    between atoms: _339  and  _341
REMARK  133  A    between atoms: _341  and  _342
REMARK  134  A    between atoms: _341  and  _344
REMARK  135  A    between atoms: _347  and  _349
REMARK  136  A    between atoms: _349  and  _350
REMARK  137  A    between atoms: _352  and  _354
REMARK  138  A    between atoms: _354  and  _355
REMARK  139  A    between atoms: _354  and  _357
REMARK  140  A    between atoms: _357  and  _358
REMARK  141  A    between atoms: _358  and  _359
REMARK  142  A    between atoms: _359  and  _360
REMARK  143  A    between atoms: _360  and  _361
REMARK  144  A    between atoms: _365  and  _367
REMARK  145  A    between atoms: _367  and  _368
REMARK  146  A    between atoms: _367  and  _370
REMARK  147  A    between atoms: _370  and  _371
REMARK  148  A    between atoms: _374  and  _376
REMARK  149  A    between atoms: _376  and  _377
REMARK  150  A    between atoms: _380  and  _382
REMARK  151  A    between atoms: _382  and  _383
REMARK  152  A    between atoms: _385  and  _387
REMARK  153  A    between atoms: _387  and  _388
REMARK  154  A    between atoms: _387  and  _390
REMARK  155  A    between atoms: _390  and  _391
REMARK  156  A    between atoms: _394  and  _396
REMARK  157  A    between atoms: _396  and  _397
REMARK  158  A    between atoms: _396  and  _399
REMARK  159  A    between atoms: _399  and  _400
REMARK  160  A    between atoms: _403  and  _405
REMARK  161  A    between atoms: _405  and  _406
REMARK  162  A    between atoms: _409  and  _411
REMARK  163  A    between atoms: _411  and  _412
REMARK  164  A    between atoms: _411  and  _414
REMARK  165  A    between atoms: _414  and  _415
REMARK  166  A    between atoms: _415  and  _416
REMARK  167  A    between atoms: _419  and  _421
REMARK  168  A    between atoms: _421  and  _422
REMARK  169  A    between atoms: _421  and  _424
REMARK  170  A    between atoms: _427  and  _429
REMARK  171  A    between atoms: _429  and  _430
REMARK  172  A    between atoms: _429  and  _432
REMARK  173  A    between atoms: _432  and  _433
REMARK  174  A    between atoms: _436  and  _438
REMARK  175  A    between atoms: _438  and  _439
REMARK  176  A    between atoms: _441  and  _443
REMARK  177  A    between atoms: _443  and  _444
REMARK  178  A    between atoms: _443  and  _446
REMARK  179  A    between atoms: _449  and  _451
REMARK  180  A    between atoms: _451  and  _452
REMARK  181  A    between atoms: _454  and  _456
REMARK  182  A    between atoms: _456  and  _457
REMARK  183  A    between atoms: _456  and  _459
REMARK  184  A    between atoms: _459  and  _460
REMARK  185  A    between atoms: _463  and  _465
REMARK  186  A    between atoms: _465  and  _466
REMARK  187  A    between atoms: _465  and  _468
REMARK  188  A    between atoms: _468  and  _469
REMARK  189  A    between atoms: _474  and  _476
REMARK  190  A    between atoms: _476  and  _477
REMARK  191  A    between atoms: _476  and  _479
REMARK  192  A    between atoms: _482  and  _484
REMARK  193  A    between atoms: _484  and  _485
REMARK  194  A    between atoms: _484  and  _487
REMARK  195  A    between atoms: _487  and  _488
REMARK  196  A    between atoms: _488  and  _489
REMARK  197  A    between atoms: _494  and  _496
REMARK  198  A    between atoms: _496  and  _497
REMARK  199  A    between atoms: _501  and  _502
REMARK  200  A    between atoms: _507  and  _509
REMARK  201  A    between atoms: _509  and  _510
REMARK  202  A    between atoms: _509  and  _512
REMARK  203  A    between atoms: _512  and  _513
REMARK  204  A    between atoms: _513  and  _514
REMARK  205  A    between atoms: _517  and  _519
REMARK  206  A    between atoms: _519  and  _520
REMARK  207  A    between atoms: _519  and  _522
REMARK  208  A    between atoms: _525  and  _527
REMARK  209  A    between atoms: _527  and  _528
REMARK  210  A    between atoms: _527  and  _530
REMARK  211  A    between atoms: _530  and  _531
REMARK  212  A    between atoms: _535  and  _536
REMARK  213  A    between atoms: _541  and  _543
REMARK  214  A    between atoms: _543  and  _544
REMARK  215  A    between atoms: _543  and  _546
REMARK  216  A    between atoms: _546  and  _547
REMARK  217  A    between atoms: _550  and  _552
REMARK  218  A    between atoms: _552  and  _553
REMARK  219  A    between atoms: _556  and  _558
REMARK  220  A    between atoms: _558  and  _559
REMARK  221  A    between atoms: _558  and  _561
REMARK  222  A    between atoms: _561  and  _562
REMARK  223  A    between atoms: _565  and  _567
REMARK  224  A    between atoms: _567  and  _568
REMARK  225  A    between atoms: _567  and  _570
REMARK  226  A    between atoms: _570  and  _571
REMARK  227  A    between atoms: _573  and  _575
REMARK  228  A    between atoms: _575  and  _576
REMARK  229  A    between atoms: _578  and  _580
REMARK  230  A    between atoms: _580  and  _581
REMARK  231  A    between atoms: _580  and  _583
REMARK  232  A    between atoms: _583  and  _584
REMARK  233  A    between atoms: _587  and  _589
REMARK  234  A    between atoms: _589  and  _590
REMARK  235  A    between atoms: _589  and  _592
REMARK                            x       y       z     vdW  Elec       q    Type
REMARK                         _______ _______ _______ _____ _____    ______ ____
ROOT
ATOM      1  O   HOH     1      -0.895   0.276   1.116  0.00  0.00    +0.000 OA
ENDROOT
TORSDOF 0
REMARK  Name = ../refined-set-2016/4xtv/4xtv_pocket.pdb
REMARK  235 active torsions:
REMARK  status: ('A' for Active; 'I' for Inactive)
REMARK    1  A    between atoms: _1  and  _3
REMARK    2  A    between atoms: _3  and  _4
REMARK    3  A    between atoms: _3  and  _6
REMARK    4  A    between atoms: _6  and  _7
REMARK    5  A    between atoms: _10  and  _12
REMARK    6  A    between atoms: _12  and  _13
REMARK    7  A    between atoms: _15  and  _17
REMARK    8  A    between atoms: _17  and  _18
REMARK    9  A    between atoms: _17  and  _20
REMARK   10  A    between atoms: _20  and  _21
REMARK   11  A    between atoms: _23  and  _25
REMARK   12  A    between atoms: _25  and  _26
REMARK   13  A    between atoms: _25  and  _28
REMARK   14  A    between atoms: _28  and  _29
REMARK   15  A    between atoms: _32  and  _34
REMARK   16  A    between atoms: _34  and  _35
REMARK   17  A    between atoms: _34  and  _37
REMARK   18  A    between atoms: _37  and  _38
REMARK   19  A    between atoms: _43  and  _45
REMARK   20  A    between atoms: _45  and  _46
REMARK   21  A    between atoms: _49  and  _51
REMARK   22  A    between atoms: _51  and  _52
REMARK   23  A    between atoms: _51  and  _54
REMARK   24  A    between atoms: _54  and  _55
REMARK   25  A    between atoms: _58  and  _60
REMARK   26  A    between atoms: _60  and  _61
REMARK   27  A    between atoms: _60  and  _63
REMARK   28  A    between atoms: _63  and  _64
REMARK   29  A    between atoms: _67  and  _69
REMARK   30  A    between atoms: _69  and  _70
REMARK   31  A    between atoms: _69  and  _72
REMARK   32  A    between atoms: _72  and  _73
REMARK   33  A    between atoms: _76  and  _78
REMARK   34  A    between atoms: _78  and  _79
REMARK   35  A    between atoms: _82  and  _84
REMARK   36  A    between atoms: _84  and  _85
REMARK   37  A    between atoms: _84  and  _87
REMARK   38  A    between atoms: _87  and  _88
REMARK   39  A    between atoms: _88  and  _89
REMARK   40  A    between atoms: _94  and  _96
REMARK   41  A    between atoms: _96  and  _97
REMARK   42  A    between atoms: _96  and  _99
REMARK   43  A    between atoms: _99  and  _100
REMARK   44  A    between atoms: _103  and  _105
REMARK   45  A    between atoms: _105  and  _106
REMARK   46  A    between atoms: _109  and  _111
REMARK   47  A    between atoms: _111  and  _112
REMARK   48  A    between atoms: _114  and  _116
REMARK   49  A    between atoms: _116  and  _117
REMARK   50  A    between atoms: _116  and  _119
REMARK   51  A    between atoms: _119  and  _120
REMARK   52  A    between atoms: _120  and  _121
REMARK   53  A    between atoms: _121  and  _122
REMARK   54  A    between atoms: _131  and  _133
REMARK   55  A    between atoms: _133  and  _134
REMARK   56  A    between atoms: _136  and  _138
REMARK   57  A    between atoms: _138  and  _139
REMARK   58  A    between atoms: _138  and  _141
REMARK   59  A    between atoms: _141  and  _142
REMARK   60  A    between atoms: _142  and  _143
REMARK   61  A    between atoms: _143  and  _144
REMARK   62  A    between atoms: _153  and  _155
REMARK   63  A    between atoms: _155  and  _156
REMARK   64  A    between atoms: _155  and  _158
REMARK   65  A    between atoms: _158  and  _159
REMARK   66  A    between atoms: _164  and  _166
REMARK   67  A    between atoms: _166  and  _167
REMARK   68  A    between atoms: _169  and  _171
REMARK   69  A    between atoms: _171  and  _172
REMARK   70  A    between atoms: _171  and  _174
REMARK   71  A    between atoms: _174  and  _175
REMARK   72  A    between atoms: _175  and  _176
REMARK   73  A    between atoms: _176  and  _177
REMARK   74  A    between atoms: _186  and  _188
REMARK   75  A    between atoms: _188  and  _189
REMARK   76  A    between atoms: _191  and  _193
REMARK   77  A    between atoms: _193  and  _194
REMARK   78  A    between atoms: _193  and  _196
REMARK   79  A    between atoms: _196  and  _197
REMARK   80  A    between atoms: _207  and  _209
REMARK   81  A    between atoms: _209  and  _210
REMARK   82  A    between atoms: _213  and  _215
REMARK   83  A    between atoms: _215  and  _216
REMARK   84  A    between atoms: _219  and  _221
REMARK   85  A    between atoms: _221  and  _222
REMARK   86  A    between atoms: _221  and  _224
REMARK   87  A    between atoms: _224  and  _225
REMARK   88  A    between atoms: _228  and  _230
REMARK   89  A    between atoms: _230  and  _231
REMARK   90  A    between atoms: _230  and  _233
REMARK   91  A    between atoms: _233  and  _234
REMARK   92  A    between atoms: _234  and  _235
REMARK   93  A    between atoms: _240  and  _242
REMARK   94  A    between atoms: _242  and  _243
REMARK   95  A    between atoms: _242  and  _245
REMARK   96  A    between atoms: _245  and  _246
REMARK   97  A    between atoms: _249  and  _251
REMARK   98  A    between atoms: _251  and  _252
REMARK   99  A    between atoms: _251  and  _254
REMARK  100  A    between atoms: _254  and  _255
REMARK  101  A    between atoms: _258  and  _260
REMARK  102  A    between atoms: _260  and  _261
REMARK  103  A    between atoms: _260  and  _263
REMARK  104  A    between atoms: _263  and  _264
REMARK  105  A    between atoms: _267  and  _269
REMARK  106  A    between atoms: _269  and  _270
REMARK  107  A    between atoms: _269  and  _272
REMARK  108  A    between atoms: _272  and  _273
REMARK  109  A    between atoms: _275  and  _277
REMARK  110  A    between atoms: _277  and  _278
REMARK  111  A    between atoms: _277  and  _280
REMARK  112  A    between atoms: _283  and  _285
REMARK  113  A    between atoms: _285  and  _286
REMARK  114  A    between atoms: _285  and  _288
REMARK  115  A    between atoms: _288  and  _289
REMARK  116  A    between atoms: _289  and  _290
REMARK  117  A    between atoms: _290  and  _291
REMARK  118  A    between atoms: _291  and  _292
REMARK  119  A    between atoms: _296  and  _298
REMARK  120  A    between atoms: _298  and  _299
REMARK  121  A    between atoms: _298  and  _301
REMARK  122  A    between atoms: _301  and  _302
REMARK  123  A    between atoms: _313  and  _314
REMARK  124  A    between atoms: _319  and  _321
REMARK  125  A    between atoms: _321  and  _322
REMARK  126  A    between atoms: _321  and  _324
REMARK  127  A    between atoms: _324  and  _325
REMARK  128  A    between atoms: _330  and  _332
REMARK  129  A    between atoms: _332  and  _333
REMARK  130  A    between atoms: _332  and  _335
REMARK  131  A    between atoms: _335  and  _336
REMARK  132  A    between atoms: _339  and  _341
REMARK  133  A    between atoms: _341  and  _342
REMARK  134  A    between atoms: _341  and  _344
REMARK  135  A    between atoms: _347  and  _349
REMARK  136  A    between atoms: _349  and  _350
REMARK  137  A    between atoms: _352  and  _354
REMARK  138  A    between atoms: _354  and  _355
REMARK  139  A    between atoms: _354  and  _357
REMARK  140  A    between atoms: _357  and  _358
REMARK  141  A    between atoms: _358  and  _359
REMARK  142  A    between atoms: _359  and  _360
REMARK  143  A    between atoms: _360  and  _361
REMARK  144  A    between atoms: _365  and  _367
REMARK  145  A    between atoms: _367  and  _368
REMARK  146  A    between atoms: _367  and  _370
REMARK  147  A    between atoms: _370  and  _371
REMARK  148  A    between atoms: _374  and  _376
REMARK  149  A    between atoms: _376  and  _377
REMARK  150  A    between atoms: _380  and  _382
REMARK  151  A    between atoms: _382  and  _383
REMARK  152  A    between atoms: _385  and  _387
REMARK  153  A    between atoms: _387  and  _388
REMARK  154  A    between atoms: _387  and  _390
REMARK  155  A    between atoms: _390  and  _391
REMARK  156  A    between atoms: _394  and  _396
REMARK  157  A    between atoms: _396  and  _397
REMARK  158  A    between atoms: _396  and  _399
REMARK  159  A    between atoms: _399  and  _400
REMARK  160  A    between atoms: _403  and  _405
REMARK  161  A    between atoms: _405  and  _406
REMARK  162  A    between atoms: _409  and  _411
REMARK  163  A    between atoms: _411  and  _412
REMARK  164  A    between atoms: _411  and  _414
REMARK  165  A    between atoms: _414  and  _415
REMARK  166  A    between atoms: _415  and  _416
REMARK  167  A    between atoms: _419  and  _421
REMARK  168  A    between atoms: _421  and  _422
REMARK  169  A    between atoms: _421  and  _424
REMARK  170  A    between atoms: _427  and  _429
REMARK  171  A    between atoms: _429  and  _430
REMARK  172  A    between atoms: _429  and  _432
REMARK  173  A    between atoms: _432  and  _433
REMARK  174  A    between atoms: _436  and  _438
REMARK  175  A    between atoms: _438  and  _439
REMARK  176  A    between atoms: _441  and  _443
REMARK  177  A    between atoms: _443  and  _444
REMARK  178  A    between atoms: _443  and  _446
REMARK  179  A    between atoms: _449  and  _451
REMARK  180  A    between atoms: _451  and  _452
REMARK  181  A    between atoms: _454  and  _456
REMARK  182  A    between atoms: _456  and  _457
REMARK  183  A    between atoms: _456  and  _459
REMARK  184  A    between atoms: _459  and  _460
REMARK  185  A    between atoms: _463  and  _465
REMARK  186  A    between atoms: _465  and  _466
REMARK  187  A    between atoms: _465  and  _468
REMARK  188  A    between atoms: _468  and  _469
REMARK  189  A    between atoms: _474  and  _476
REMARK  190  A    between atoms: _476  and  _477
REMARK  191  A    between atoms: _476  and  _479
REMARK  192  A    between atoms: _482  and  _484
REMARK  193  A    between atoms: _484  and  _485
REMARK  194  A    between atoms: _484  and  _487
REMARK  195  A    between atoms: _487  and  _488
REMARK  196  A    between atoms: _488  and  _489
REMARK  197  A    between atoms: _494  and  _496
REMARK  198  A    between atoms: _496  and  _497
REMARK  199  A    between atoms: _501  and  _502
REMARK  200  A    between atoms: _507  and  _509
REMARK  201  A    between atoms: _509  and  _510
REMARK  202  A    between atoms: _509  and  _512
REMARK  203  A    between atoms: _512  and  _513
REMARK  204  A    between atoms: _513  and  _514
REMARK  205  A    between atoms: _517  and  _519
REMARK  206  A    between atoms: _519  and  _520
REMARK  207  A    between atoms: _519  and  _522
REMARK  208  A    between atoms: _525  and  _527
REMARK  209  A    between atoms: _527  and  _528
REMARK  210  A    between atoms: _527  and  _530
REMARK  211  A    between atoms: _530  and  _531
REMARK  212  A    between atoms: _535  and  _536
REMARK  213  A    between atoms: _541  and  _543
REMARK  214  A    between atoms: _543  and  _544
REMARK  215  A    between atoms: _543  and  _546
REMARK  216  A    between atoms: _546  and  _547
REMARK  217  A    between atoms: _550  and  _552
REMARK  218  A    between atoms: _552  and  _553
REMARK  219  A    between atoms: _556  and  _558
REMARK  220  A    between atoms: _558  and  _559
REMARK  221  A    between atoms: _558  and  _561
REMARK  222  A    between atoms: _561  and  _562
REMARK  223  A    between atoms: _565  and  _567
REMARK  224  A    between atoms: _567  and  _568
REMARK  225  A    between atoms: _567  and  _570
REMARK  226  A    between atoms: _570  and  _571
REMARK  227  A    between atoms: _573  and  _575
REMARK  228  A    between atoms: _575  and  _576
REMARK  229  A    between atoms: _578  and  _580
REMARK  230  A    between atoms: _580  and  _581
REMARK  231  A    between atoms: _580  and  _583
REMARK  232  A    between atoms: _583  and  _584
REMARK  233  A    between atoms: _587  and  _589
REMARK  234  A    between atoms: _589  and  _590
REMARK  235  A    between atoms: _589  and  _592
REMARK                            x       y       z     vdW  Elec       q    Type
REMARK                         _______ _______ _______ _____ _____    ______ ____
ROOT
ATOM      1  O   HOH     1       6.833 -10.469  19.323  0.00  0.00    +0.000 OA
ENDROOT
TORSDOF 0
REMARK  Name = ../refined-set-2016/4xtv/4xtv_pocket.pdb
REMARK  235 active torsions:
REMARK  status: ('A' for Active; 'I' for Inactive)
REMARK    1  A    between atoms: _1  and  _3
REMARK    2  A    between atoms: _3  and  _4
REMARK    3  A    between atoms: _3  and  _6
REMARK    4  A    between atoms: _6  and  _7
REMARK    5  A    between atoms: _10  and  _12
REMARK    6  A    between atoms: _12  and  _13
REMARK    7  A    between atoms: _15  and  _17
REMARK    8  A    between atoms: _17  and  _18
REMARK    9  A    between atoms: _17  and  _20
REMARK   10  A    between atoms: _20  and  _21
REMARK   11  A    between atoms: _23  and  _25
REMARK   12  A    between atoms: _25  and  _26
REMARK   13  A    between atoms: _25  and  _28
REMARK   14  A    between atoms: _28  and  _29
REMARK   15  A    between atoms: _32  and  _34
REMARK   16  A    between atoms: _34  and  _35
REMARK   17  A    between atoms: _34  and  _37
REMARK   18  A    between atoms: _37  and  _38
REMARK   19  A    between atoms: _43  and  _45
REMARK   20  A    between atoms: _45  and  _46
REMARK   21  A    between atoms: _49  and  _51
REMARK   22  A    between atoms: _51  and  _52
REMARK   23  A    between atoms: _51  and  _54
REMARK   24  A    between atoms: _54  and  _55
REMARK   25  A    between atoms: _58  and  _60
REMARK   26  A    between atoms: _60  and  _61
REMARK   27  A    between atoms: _60  and  _63
REMARK   28  A    between atoms: _63  and  _64
REMARK   29  A    between atoms: _67  and  _69
REMARK   30  A    between atoms: _69  and  _70
REMARK   31  A    between atoms: _69  and  _72
REMARK   32  A    between atoms: _72  and  _73
REMARK   33  A    between atoms: _76  and  _78
REMARK   34  A    between atoms: _78  and  _79
REMARK   35  A    between atoms: _82  and  _84
REMARK   36  A    between atoms: _84  and  _85
REMARK   37  A    between atoms: _84  and  _87
REMARK   38  A    between atoms: _87  and  _88
REMARK   39  A    between atoms: _88  and  _89
REMARK   40  A    between atoms: _94  and  _96
REMARK   41  A    between atoms: _96  and  _97
REMARK   42  A    between atoms: _96  and  _99
REMARK   43  A    between atoms: _99  and  _100
REMARK   44  A    between atoms: _103  and  _105
REMARK   45  A    between atoms: _105  and  _106
REMARK   46  A    between atoms: _109  and  _111
REMARK   47  A    between atoms: _111  and  _112
REMARK   48  A    between atoms: _114  and  _116
REMARK   49  A    between atoms: _116  and  _117
REMARK   50  A    between atoms: _116  and  _119
REMARK   51  A    between atoms: _119  and  _120
REMARK   52  A    between atoms: _120  and  _121
REMARK   53  A    between atoms: _121  and  _122
REMARK   54  A    between atoms: _131  and  _133
REMARK   55  A    between atoms: _133  and  _134
REMARK   56  A    between atoms: _136  and  _138
REMARK   57  A    between atoms: _138  and  _139
REMARK   58  A    between atoms: _138  and  _141
REMARK   59  A    between atoms: _141  and  _142
REMARK   60  A    between atoms: _142  and  _143
REMARK   61  A    between atoms: _143  and  _144
REMARK   62  A    between atoms: _153  and  _155
REMARK   63  A    between atoms: _155  and  _156
REMARK   64  A    between atoms: _155  and  _158
REMARK   65  A    between atoms: _158  and  _159
REMARK   66  A    between atoms: _164  and  _166
REMARK   67  A    between atoms: _166  and  _167
REMARK   68  A    between atoms: _169  and  _171
REMARK   69  A    between atoms: _171  and  _172
REMARK   70  A    between atoms: _171  and  _174
REMARK   71  A    between atoms: _174  and  _175
REMARK   72  A    between atoms: _175  and  _176
REMARK   73  A    between atoms: _176  and  _177
REMARK   74  A    between atoms: _186  and  _188
REMARK   75  A    between atoms: _188  and  _189
REMARK   76  A    between atoms: _191  and  _193
REMARK   77  A    between atoms: _193  and  _194
REMARK   78  A    between atoms: _193  and  _196
REMARK   79  A    between atoms: _196  and  _197
REMARK   80  A    between atoms: _207  and  _209
REMARK   81  A    between atoms: _209  and  _210
REMARK   82  A    between atoms: _213  and  _215
REMARK   83  A    between atoms: _215  and  _216
REMARK   84  A    between atoms: _219  and  _221
REMARK   85  A    between atoms: _221  and  _222
REMARK   86  A    between atoms: _221  and  _224
REMARK   87  A    between atoms: _224  and  _225
REMARK   88  A    between atoms: _228  and  _230
REMARK   89  A    between atoms: _230  and  _231
REMARK   90  A    between atoms: _230  and  _233
REMARK   91  A    between atoms: _233  and  _234
REMARK   92  A    between atoms: _234  and  _235
REMARK   93  A    between atoms: _240  and  _242
REMARK   94  A    between atoms: _242  and  _243
REMARK   95  A    between atoms: _242  and  _245
REMARK   96  A    between atoms: _245  and  _246
REMARK   97  A    between atoms: _249  and  _251
REMARK   98  A    between atoms: _251  and  _252
REMARK   99  A    between atoms: _251  and  _254
REMARK  100  A    between atoms: _254  and  _255
REMARK  101  A    between atoms: _258  and  _260
REMARK  102  A    between atoms: _260  and  _261
REMARK  103  A    between atoms: _260  and  _263
REMARK  104  A    between atoms: _263  and  _264
REMARK  105  A    between atoms: _267  and  _269
REMARK  106  A    between atoms: _269  and  _270
REMARK  107  A    between atoms: _269  and  _272
REMARK  108  A    between atoms: _272  and  _273
REMARK  109  A    between atoms: _275  and  _277
REMARK  110  A    between atoms: _277  and  _278
REMARK  111  A    between atoms: _277  and  _280
REMARK  112  A    between atoms: _283  and  _285
REMARK  113  A    between atoms: _285  and  _286
REMARK  114  A    between atoms: _285  and  _288
REMARK  115  A    between atoms: _288  and  _289
REMARK  116  A    between atoms: _289  and  _290
REMARK  117  A    between atoms: _290  and  _291
REMARK  118  A    between atoms: _291  and  _292
REMARK  119  A    between atoms: _296  and  _298
REMARK  120  A    between atoms: _298  and  _299
REMARK  121  A    between atoms: _298  and  _301
REMARK  122  A    between atoms: _301  and  _302
REMARK  123  A    between atoms: _313  and  _314
REMARK  124  A    between atoms: _319  and  _321
REMARK  125  A    between atoms: _321  and  _322
REMARK  126  A    between atoms: _321  and  _324
REMARK  127  A    between atoms: _324  and  _325
REMARK  128  A    between atoms: _330  and  _332
REMARK  129  A    between atoms: _332  and  _333
REMARK  130  A    between atoms: _332  and  _335
REMARK  131  A    between atoms: _335  and  _336
REMARK  132  A    between atoms: _339  and  _341
REMARK  133  A    between atoms: _341  and  _342
REMARK  134  A    between atoms: _341  and  _344
REMARK  135  A    between atoms: _347  and  _349
REMARK  136  A    between atoms: _349  and  _350
REMARK  137  A    between atoms: _352  and  _354
REMARK  138  A    between atoms: _354  and  _355
REMARK  139  A    between atoms: _354  and  _357
REMARK  140  A    between atoms: _357  and  _358
REMARK  141  A    between atoms: _358  and  _359
REMARK  142  A    between atoms: _359  and  _360
REMARK  143  A    between atoms: _360  and  _361
REMARK  144  A    between atoms: _365  and  _367
REMARK  145  A    between atoms: _367  and  _368
REMARK  146  A    between atoms: _367  and  _370
REMARK  147  A    between atoms: _370  and  _371
REMARK  148  A    between atoms: _374  and  _376
REMARK  149  A    between atoms: _376  and  _377
REMARK  150  A    between atoms: _380  and  _382
REMARK  151  A    between atoms: _382  and  _383
REMARK  152  A    between atoms: _385  and  _387
REMARK  153  A    between atoms: _387  and  _388
REMARK  154  A    between atoms: _387  and  _390
REMARK  155  A    between atoms: _390  and  _391
REMARK  156  A    between atoms: _394  and  _396
REMARK  157  A    between atoms: _396  and  _397
REMARK  158  A    between atoms: _396  and  _399
REMARK  159  A    between atoms: _399  and  _400
REMARK  160  A    between atoms: _403  and  _405
REMARK  161  A    between atoms: _405  and  _406
REMARK  162  A    between atoms: _409  and  _411
REMARK  163  A    between atoms: _411  and  _412
REMARK  164  A    between atoms: _411  and  _414
REMARK  165  A    between atoms: _414  and  _415
REMARK  166  A    between atoms: _415  and  _416
REMARK  167  A    between atoms: _419  and  _421
REMARK  168  A    between atoms: _421  and  _422
REMARK  169  A    between atoms: _421  and  _424
REMARK  170  A    between atoms: _427  and  _429
REMARK  171  A    between atoms: _429  and  _430
REMARK  172  A    between atoms: _429  and  _432
REMARK  173  A    between atoms: _432  and  _433
REMARK  174  A    between atoms: _436  and  _438
REMARK  175  A    between atoms: _438  and  _439
REMARK  176  A    between atoms: _441  and  _443
REMARK  177  A    between atoms: _443  and  _444
REMARK  178  A    between atoms: _443  and  _446
REMARK  179  A    between atoms: _449  and  _451
REMARK  180  A    between atoms: _451  and  _452
REMARK  181  A    between atoms: _454  and  _456
REMARK  182  A    between atoms: _456  and  _457
REMARK  183  A    between atoms: _456  and  _459
REMARK  184  A    between atoms: _459  and  _460
REMARK  185  A    between atoms: _463  and  _465
REMARK  186  A    between atoms: _465  and  _466
REMARK  187  A    between atoms: _465  and  _468
REMARK  188  A    between atoms: _468  and  _469
REMARK  189  A    between atoms: _474  and  _476
REMARK  190  A    between atoms: _476  and  _477
REMARK  191  A    between atoms: _476  and  _479
REMARK  192  A    between atoms: _482  and  _484
REMARK  193  A    between atoms: _484  and  _485
REMARK  194  A    between atoms: _484  and  _487
REMARK  195  A    between atoms: _487  and  _488
REMARK  196  A    between atoms: _488  and  _489
REMARK  197  A    between atoms: _494  and  _496
REMARK  198  A    between atoms: _496  and  _497
REMARK  199  A    between atoms: _501  and  _502
REMARK  200  A    between atoms: _507  and  _509
REMARK  201  A    between atoms: _509  and  _510
REMARK  202  A    between atoms: _509  and  _512
REMARK  203  A    between atoms: _512  and  _513
REMARK  204  A    between atoms: _513  and  _514
REMARK  205  A    between atoms: _517  and  _519
REMARK  206  A    between atoms: _519  and  _520
REMARK  207  A    between atoms: _519  and  _522
REMARK  208  A    between atoms: _525  and  _527
REMARK  209  A    between atoms: _527  and  _528
REMARK  210  A    between atoms: _527  and  _530
REMARK  211  A    between atoms: _530  and  _531
REMARK  212  A    between atoms: _535  and  _536
REMARK  213  A    between atoms: _541  and  _543
REMARK  214  A    between atoms: _543  and  _544
REMARK  215  A    between atoms: _543  and  _546
REMARK  216  A    between atoms: _546  and  _547
REMARK  217  A    between atoms: _550  and  _552
REMARK  218  A    between atoms: _552  and  _553
REMARK  219  A    between atoms: _556  and  _558
REMARK  220  A    between atoms: _558  and  _559
REMARK  221  A    between atoms: _558  and  _561
REMARK  222  A    between atoms: _561  and  _562
REMARK  223  A    between atoms: _565  and  _567
REMARK  224  A    between atoms: _567  and  _568
REMARK  225  A    between atoms: _567  and  _570
REMARK  226  A    between atoms: _570  and  _571
REMARK  227  A    between atoms: _573  and  _575
REMARK  228  A    between atoms: _575  and  _576
REMARK  229  A    between atoms: _578  and  _580
REMARK  230  A    between atoms: _580  and  _581
REMARK  231  A    between atoms: _580  and  _583
REMARK  232  A    between atoms: _583  and  _584
REMARK  233  A    between atoms: _587  and  _589
REMARK  234  A    between atoms: _589  and  _590
REMARK  235  A    between atoms: _589  and  _592
REMARK                            x       y       z     vdW  Elec       q    Type
REMARK                         _______ _______ _______ _____ _____    ______ ____
ROOT
ATOM      1  O   HOH     1      -8.483  -1.694   1.200  0.00  0.00    +0.000 OA
ENDROOT
TORSDOF 0
REMARK  Name = ../refined-set-2016/4xtv/4xtv_pocket.pdb
REMARK  235 active torsions:
REMARK  status: ('A' for Active; 'I' for Inactive)
REMARK    1  A    between atoms: _1  and  _3
REMARK    2  A    between atoms: _3  and  _4
REMARK    3  A    between atoms: _3  and  _6
REMARK    4  A    between atoms: _6  and  _7
REMARK    5  A    between atoms: _10  and  _12
REMARK    6  A    between atoms: _12  and  _13
REMARK    7  A    between atoms: _15  and  _17
REMARK    8  A    between atoms: _17  and  _18
REMARK    9  A    between atoms: _17  and  _20
REMARK   10  A    between atoms: _20  and  _21
REMARK   11  A    between atoms: _23  and  _25
REMARK   12  A    between atoms: _25  and  _26
REMARK   13  A    between atoms: _25  and  _28
REMARK   14  A    between atoms: _28  and  _29
REMARK   15  A    between atoms: _32  and  _34
REMARK   16  A    between atoms: _34  and  _35
REMARK   17  A    between atoms: _34  and  _37
REMARK   18  A    between atoms: _37  and  _38
REMARK   19  A    between atoms: _43  and  _45
REMARK   20  A    between atoms: _45  and  _46
REMARK   21  A    between atoms: _49  and  _51
REMARK   22  A    between atoms: _51  and  _52
REMARK   23  A    between atoms: _51  and  _54
REMARK   24  A    between atoms: _54  and  _55
REMARK   25  A    between atoms: _58  and  _60
REMARK   26  A    between atoms: _60  and  _61
REMARK   27  A    between atoms: _60  and  _63
REMARK   28  A    between atoms: _63  and  _64
REMARK   29  A    between atoms: _67  and  _69
REMARK   30  A    between atoms: _69  and  _70
REMARK   31  A    between atoms: _69  and  _72
REMARK   32  A    between atoms: _72  and  _73
REMARK   33  A    between atoms: _76  and  _78
REMARK   34  A    between atoms: _78  and  _79
REMARK   35  A    between atoms: _82  and  _84
REMARK   36  A    between atoms: _84  and  _85
REMARK   37  A    between atoms: _84  and  _87
REMARK   38  A    between atoms: _87  and  _88
REMARK   39  A    between atoms: _88  and  _89
REMARK   40  A    between atoms: _94  and  _96
REMARK   41  A    between atoms: _96  and  _97
REMARK   42  A    between atoms: _96  and  _99
REMARK   43  A    between atoms: _99  and  _100
REMARK   44  A    between atoms: _103  and  _105
REMARK   45  A    between atoms: _105  and  _106
REMARK   46  A    between atoms: _109  and  _111
REMARK   47  A    between atoms: _111  and  _112
REMARK   48  A    between atoms: _114  and  _116
REMARK   49  A    between atoms: _116  and  _117
REMARK   50  A    between atoms: _116  and  _119
REMARK   51  A    between atoms: _119  and  _120
REMARK   52  A    between atoms: _120  and  _121
REMARK   53  A    between atoms: _121  and  _122
REMARK   54  A    between atoms: _131  and  _133
REMARK   55  A    between atoms: _133  and  _134
REMARK   56  A    between atoms: _136  and  _138
REMARK   57  A    between atoms: _138  and  _139
REMARK   58  A    between atoms: _138  and  _141
REMARK   59  A    between atoms: _141  and  _142
REMARK   60  A    between atoms: _142  and  _143
REMARK   61  A    between atoms: _143  and  _144
REMARK   62  A    between atoms: _153  and  _155
REMARK   63  A    between atoms: _155  and  _156
REMARK   64  A    between atoms: _155  and  _158
REMARK   65  A    between atoms: _158  and  _159
REMARK   66  A    between atoms: _164  and  _166
REMARK   67  A    between atoms: _166  and  _167
REMARK   68  A    between atoms: _169  and  _171
REMARK   69  A    between atoms: _171  and  _172
REMARK   70  A    between atoms: _171  and  _174
REMARK   71  A    between atoms: _174  and  _175
REMARK   72  A    between atoms: _175  and  _176
REMARK   73  A    between atoms: _176  and  _177
REMARK   74  A    between atoms: _186  and  _188
REMARK   75  A    between atoms: _188  and  _189
REMARK   76  A    between atoms: _191  and  _193
REMARK   77  A    between atoms: _193  and  _194
REMARK   78  A    between atoms: _193  and  _196
REMARK   79  A    between atoms: _196  and  _197
REMARK   80  A    between atoms: _207  and  _209
REMARK   81  A    between atoms: _209  and  _210
REMARK   82  A    between atoms: _213  and  _215
REMARK   83  A    between atoms: _215  and  _216
REMARK   84  A    between atoms: _219  and  _221
REMARK   85  A    between atoms: _221  and  _222
REMARK   86  A    between atoms: _221  and  _224
REMARK   87  A    between atoms: _224  and  _225
REMARK   88  A    between atoms: _228  and  _230
REMARK   89  A    between atoms: _230  and  _231
REMARK   90  A    between atoms: _230  and  _233
REMARK   91  A    between atoms: _233  and  _234
REMARK   92  A    between atoms: _234  and  _235
REMARK   93  A    between atoms: _240  and  _242
REMARK   94  A    between atoms: _242  and  _243
REMARK   95  A    between atoms: _242  and  _245
REMARK   96  A    between atoms: _245  and  _246
REMARK   97  A    between atoms: _249  and  _251
REMARK   98  A    between atoms: _251  and  _252
REMARK   99  A    between atoms: _251  and  _254
REMARK  100  A    between atoms: _254  and  _255
REMARK  101  A    between atoms: _258  and  _260
REMARK  102  A    between atoms: _260  and  _261
REMARK  103  A    between atoms: _260  and  _263
REMARK  104  A    between atoms: _263  and  _264
REMARK  105  A    between atoms: _267  and  _269
REMARK  106  A    between atoms: _269  and  _270
REMARK  107  A    between atoms: _269  and  _272
REMARK  108  A    between atoms: _272  and  _273
REMARK  109  A    between atoms: _275  and  _277
REMARK  110  A    between atoms: _277  and  _278
REMARK  111  A    between atoms: _277  and  _280
REMARK  112  A    between atoms: _283  and  _285
REMARK  113  A    between atoms: _285  and  _286
REMARK  114  A    between atoms: _285  and  _288
REMARK  115  A    between atoms: _288  and  _289
REMARK  116  A    between atoms: _289  and  _290
REMARK  117  A    between atoms: _290  and  _291
REMARK  118  A    between atoms: _291  and  _292
REMARK  119  A    between atoms: _296  and  _298
REMARK  120  A    between atoms: _298  and  _299
REMARK  121  A    between atoms: _298  and  _301
REMARK  122  A    between atoms: _301  and  _302
REMARK  123  A    between atoms: _313  and  _314
REMARK  124  A    between atoms: _319  and  _321
REMARK  125  A    between atoms: _321  and  _322
REMARK  126  A    between atoms: _321  and  _324
REMARK  127  A    between atoms: _324  and  _325
REMARK  128  A    between atoms: _330  and  _332
REMARK  129  A    between atoms: _332  and  _333
REMARK  130  A    between atoms: _332  and  _335
REMARK  131  A    between atoms: _335  and  _336
REMARK  132  A    between atoms: _339  and  _341
REMARK  133  A    between atoms: _341  and  _342
REMARK  134  A    between atoms: _341  and  _344
REMARK  135  A    between atoms: _347  and  _349
REMARK  136  A    between atoms: _349  and  _350
REMARK  137  A    between atoms: _352  and  _354
REMARK  138  A    between atoms: _354  and  _355
REMARK  139  A    between atoms: _354  and  _357
REMARK  140  A    between atoms: _357  and  _358
REMARK  141  A    between atoms: _358  and  _359
REMARK  142  A    between atoms: _359  and  _360
REMARK  143  A    between atoms: _360  and  _361
REMARK  144  A    between atoms: _365  and  _367
REMARK  145  A    between atoms: _367  and  _368
REMARK  146  A    between atoms: _367  and  _370
REMARK  147  A    between atoms: _370  and  _371
REMARK  148  A    between atoms: _374  and  _376
REMARK  149  A    between atoms: _376  and  _377
REMARK  150  A    between atoms: _380  and  _382
REMARK  151  A    between atoms: _382  and  _383
REMARK  152  A    between atoms: _385  and  _387
REMARK  153  A    between atoms: _387  and  _388
REMARK  154  A    between atoms: _387  and  _390
REMARK  155  A    between atoms: _390  and  _391
REMARK  156  A    between atoms: _394  and  _396
REMARK  157  A    between atoms: _396  and  _397
REMARK  158  A    between atoms: _396  and  _399
REMARK  159  A    between atoms: _399  and  _400
REMARK  160  A    between atoms: _403  and  _405
REMARK  161  A    between atoms: _405  and  _406
REMARK  162  A    between atoms: _409  and  _411
REMARK  163  A    between atoms: _411  and  _412
REMARK  164  A    between atoms: _411  and  _414
REMARK  165  A    between atoms: _414  and  _415
REMARK  166  A    between atoms: _415  and  _416
REMARK  167  A    between atoms: _419  and  _421
REMARK  168  A    between atoms: _421  and  _422
REMARK  169  A    between atoms: _421  and  _424
REMARK  170  A    between atoms: _427  and  _429
REMARK  171  A    between atoms: _429  and  _430
REMARK  172  A    between atoms: _429  and  _432
REMARK  173  A    between atoms: _432  and  _433
REMARK  174  A    between atoms: _436  and  _438
REMARK  175  A    between atoms: _438  and  _439
REMARK  176  A    between atoms: _441  and  _443
REMARK  177  A    between atoms: _443  and  _444
REMARK  178  A    between atoms: _443  and  _446
REMARK  179  A    between atoms: _449  and  _451
REMARK  180  A    between atoms: _451  and  _452
REMARK  181  A    between atoms: _454  and  _456
REMARK  182  A    between atoms: _456  and  _457
REMARK  183  A    between atoms: _456  and  _459
REMARK  184  A    between atoms: _459  and  _460
REMARK  185  A    between atoms: _463  and  _465
REMARK  186  A    between atoms: _465  and  _466
REMARK  187  A    between atoms: _465  and  _468
REMARK  188  A    between atoms: _468  and  _469
REMARK  189  A    between atoms: _474  and  _476
REMARK  190  A    between atoms: _476  and  _477
REMARK  191  A    between atoms: _476  and  _479
REMARK  192  A    between atoms: _482  and  _484
REMARK  193  A    between atoms: _484  and  _485
REMARK  194  A    between atoms: _484  and  _487
REMARK  195  A    between atoms: _487  and  _488
REMARK  196  A    between atoms: _488  and  _489
REMARK  197  A    between atoms: _494  and  _496
REMARK  198  A    between atoms: _496  and  _497
REMARK  199  A    between atoms: _501  and  _502
REMARK  200  A    between atoms: _507  and  _509
REMARK  201  A    between atoms: _509  and  _510
REMARK  202  A    between atoms: _509  and  _512
REMARK  203  A    between atoms: _512  and  _513
REMARK  204  A    between atoms: _513  and  _514
REMARK  205  A    between atoms: _517  and  _519
REMARK  206  A    between atoms: _519  and  _520
REMARK  207  A    between atoms: _519  and  _522
REMARK  208  A    between atoms: _525  and  _527
REMARK  209  A    between atoms: _527  and  _528
REMARK  210  A    between atoms: _527  and  _530
REMARK  211  A    between atoms: _530  and  _531
REMARK  212  A    between atoms: _535  and  _536
REMARK  213  A    between atoms: _541  and  _543
REMARK  214  A    between atoms: _543  and  _544
REMARK  215  A    between atoms: _543  and  _546
REMARK  216  A    between atoms: _546  and  _547
REMARK  217  A    between atoms: _550  and  _552
REMARK  218  A    between atoms: _552  and  _553
REMARK  219  A    between atoms: _556  and  _558
REMARK  220  A    between atoms: _558  and  _559
REMARK  221  A    between atoms: _558  and  _561
REMARK  222  A    between atoms: _561  and  _562
REMARK  223  A    between atoms: _565  and  _567
REMARK  224  A    between atoms: _567  and  _568
REMARK  225  A    between atoms: _567  and  _570
REMARK  226  A    between atoms: _570  and  _571
REMARK  227  A    between atoms: _573  and  _575
REMARK  228  A    between atoms: _575  and  _576
REMARK  229  A    between atoms: _578  and  _580
REMARK  230  A    between atoms: _580  and  _581
REMARK  231  A    between atoms: _580  and  _583
REMARK  232  A    between atoms: _583  and  _584
REMARK  233  A    between atoms: _587  and  _589
REMARK  234  A    between atoms: _589  and  _590
REMARK  235  A    between atoms: _589  and  _592
REMARK                            x       y       z     vdW  Elec       q    Type
REMARK                         _______ _______ _______ _____ _____    ______ ____
ROOT
ATOM      1  O   HOH     1     -12.574   1.271   6.223  0.00  0.00    +0.000 OA
ENDROOT
TORSDOF 0
REMARK  Name = ../refined-set-2016/4xtv/4xtv_pocket.pdb
REMARK  235 active torsions:
REMARK  status: ('A' for Active; 'I' for Inactive)
REMARK    1  A    between atoms: _1  and  _3
REMARK    2  A    between atoms: _3  and  _4
REMARK    3  A    between atoms: _3  and  _6
REMARK    4  A    between atoms: _6  and  _7
REMARK    5  A    between atoms: _10  and  _12
REMARK    6  A    between atoms: _12  and  _13
REMARK    7  A    between atoms: _15  and  _17
REMARK    8  A    between atoms: _17  and  _18
REMARK    9  A    between atoms: _17  and  _20
REMARK   10  A    between atoms: _20  and  _21
REMARK   11  A    between atoms: _23  and  _25
REMARK   12  A    between atoms: _25  and  _26
REMARK   13  A    between atoms: _25  and  _28
REMARK   14  A    between atoms: _28  and  _29
REMARK   15  A    between atoms: _32  and  _34
REMARK   16  A    between atoms: _34  and  _35
REMARK   17  A    between atoms: _34  and  _37
REMARK   18  A    between atoms: _37  and  _38
REMARK   19  A    between atoms: _43  and  _45
REMARK   20  A    between atoms: _45  and  _46
REMARK   21  A    between atoms: _49  and  _51
REMARK   22  A    between atoms: _51  and  _52
REMARK   23  A    between atoms: _51  and  _54
REMARK   24  A    between atoms: _54  and  _55
REMARK   25  A    between atoms: _58  and  _60
REMARK   26  A    between atoms: _60  and  _61
REMARK   27  A    between atoms: _60  and  _63
REMARK   28  A    between atoms: _63  and  _64
REMARK   29  A    between atoms: _67  and  _69
REMARK   30  A    between atoms: _69  and  _70
REMARK   31  A    between atoms: _69  and  _72
REMARK   32  A    between atoms: _72  and  _73
REMARK   33  A    between atoms: _76  and  _78
REMARK   34  A    between atoms: _78  and  _79
REMARK   35  A    between atoms: _82  and  _84
REMARK   36  A    between atoms: _84  and  _85
REMARK   37  A    between atoms: _84  and  _87
REMARK   38  A    between atoms: _87  and  _88
REMARK   39  A    between atoms: _88  and  _89
REMARK   40  A    between atoms: _94  and  _96
REMARK   41  A    between atoms: _96  and  _97
REMARK   42  A    between atoms: _96  and  _99
REMARK   43  A    between atoms: _99  and  _100
REMARK   44  A    between atoms: _103  and  _105
REMARK   45  A    between atoms: _105  and  _106
REMARK   46  A    between atoms: _109  and  _111
REMARK   47  A    between atoms: _111  and  _112
REMARK   48  A    between atoms: _114  and  _116
REMARK   49  A    between atoms: _116  and  _117
REMARK   50  A    between atoms: _116  and  _119
REMARK   51  A    between atoms: _119  and  _120
REMARK   52  A    between atoms: _120  and  _121
REMARK   53  A    between atoms: _121  and  _122
REMARK   54  A    between atoms: _131  and  _133
REMARK   55  A    between atoms: _133  and  _134
REMARK   56  A    between atoms: _136  and  _138
REMARK   57  A    between atoms: _138  and  _139
REMARK   58  A    between atoms: _138  and  _141
REMARK   59  A    between atoms: _141  and  _142
REMARK   60  A    between atoms: _142  and  _143
REMARK   61  A    between atoms: _143  and  _144
REMARK   62  A    between atoms: _153  and  _155
REMARK   63  A    between atoms: _155  and  _156
REMARK   64  A    between atoms: _155  and  _158
REMARK   65  A    between atoms: _158  and  _159
REMARK   66  A    between atoms: _164  and  _166
REMARK   67  A    between atoms: _166  and  _167
REMARK   68  A    between atoms: _169  and  _171
REMARK   69  A    between atoms: _171  and  _172
REMARK   70  A    between atoms: _171  and  _174
REMARK   71  A    between atoms: _174  and  _175
REMARK   72  A    between atoms: _175  and  _176
REMARK   73  A    between atoms: _176  and  _177
REMARK   74  A    between atoms: _186  and  _188
REMARK   75  A    between atoms: _188  and  _189
REMARK   76  A    between atoms: _191  and  _193
REMARK   77  A    between atoms: _193  and  _194
REMARK   78  A    between atoms: _193  and  _196
REMARK   79  A    between atoms: _196  and  _197
REMARK   80  A    between atoms: _207  and  _209
REMARK   81  A    between atoms: _209  and  _210
REMARK   82  A    between atoms: _213  and  _215
REMARK   83  A    between atoms: _215  and  _216
REMARK   84  A    between atoms: _219  and  _221
REMARK   85  A    between atoms: _221  and  _222
REMARK   86  A    between atoms: _221  and  _224
REMARK   87  A    between atoms: _224  and  _225
REMARK   88  A    between atoms: _228  and  _230
REMARK   89  A    between atoms: _230  and  _231
REMARK   90  A    between atoms: _230  and  _233
REMARK   91  A    between atoms: _233  and  _234
REMARK   92  A    between atoms: _234  and  _235
REMARK   93  A    between atoms: _240  and  _242
REMARK   94  A    between atoms: _242  and  _243
REMARK   95  A    between atoms: _242  and  _245
REMARK   96  A    between atoms: _245  and  _246
REMARK   97  A    between atoms: _249  and  _251
REMARK   98  A    between atoms: _251  and  _252
REMARK   99  A    between atoms: _251  and  _254
REMARK  100  A    between atoms: _254  and  _255
REMARK  101  A    between atoms: _258  and  _260
REMARK  102  A    between atoms: _260  and  _261
REMARK  103  A    between atoms: _260  and  _263
REMARK  104  A    between atoms: _263  and  _264
REMARK  105  A    between atoms: _267  and  _269
REMARK  106  A    between atoms: _269  and  _270
REMARK  107  A    between atoms: _269  and  _272
REMARK  108  A    between atoms: _272  and  _273
REMARK  109  A    between atoms: _275  and  _277
REMARK  110  A    between atoms: _277  and  _278
REMARK  111  A    between atoms: _277  and  _280
REMARK  112  A    between atoms: _283  and  _285
REMARK  113  A    between atoms: _285  and  _286
REMARK  114  A    between atoms: _285  and  _288
REMARK  115  A    between atoms: _288  and  _289
REMARK  116  A    between atoms: _289  and  _290
REMARK  117  A    between atoms: _290  and  _291
REMARK  118  A    between atoms: _291  and  _292
REMARK  119  A    between atoms: _296  and  _298
REMARK  120  A    between atoms: _298  and  _299
REMARK  121  A    between atoms: _298  and  _301
REMARK  122  A    between atoms: _301  and  _302
REMARK  123  A    between atoms: _313  and  _314
REMARK  124  A    between atoms: _319  and  _321
REMARK  125  A    between atoms: _321  and  _322
REMARK  126  A    between atoms: _321  and  _324
REMARK  127  A    between atoms: _324  and  _325
REMARK  128  A    between atoms: _330  and  _332
REMARK  129  A    between atoms: _332  and  _333
REMARK  130  A    between atoms: _332  and  _335
REMARK  131  A    between atoms: _335  and  _336
REMARK  132  A    between atoms: _339  and  _341
REMARK  133  A    between atoms: _341  and  _342
REMARK  134  A    between atoms: _341  and  _344
REMARK  135  A    between atoms: _347  and  _349
REMARK  136  A    between atoms: _349  and  _350
REMARK  137  A    between atoms: _352  and  _354
REMARK  138  A    between atoms: _354  and  _355
REMARK  139  A    between atoms: _354  and  _357
REMARK  140  A    between atoms: _357  and  _358
REMARK  141  A    between atoms: _358  and  _359
REMARK  142  A    between atoms: _359  and  _360
REMARK  143  A    between atoms: _360  and  _361
REMARK  144  A    between atoms: _365  and  _367
REMARK  145  A    between atoms: _367  and  _368
REMARK  146  A    between atoms: _367  and  _370
REMARK  147  A    between atoms: _370  and  _371
REMARK  148  A    between atoms: _374  and  _376
REMARK  149  A    between atoms: _376  and  _377
REMARK  150  A    between atoms: _380  and  _382
REMARK  151  A    between atoms: _382  and  _383
REMARK  152  A    between atoms: _385  and  _387
REMARK  153  A    between atoms: _387  and  _388
REMARK  154  A    between atoms: _387  and  _390
REMARK  155  A    between atoms: _390  and  _391
REMARK  156  A    between atoms: _394  and  _396
REMARK  157  A    between atoms: _396  and  _397
REMARK  158  A    between atoms: _396  and  _399
REMARK  159  A    between atoms: _399  and  _400
REMARK  160  A    between atoms: _403  and  _405
REMARK  161  A    between atoms: _405  and  _406
REMARK  162  A    between atoms: _409  and  _411
REMARK  163  A    between atoms: _411  and  _412
REMARK  164  A    between atoms: _411  and  _414
REMARK  165  A    between atoms: _414  and  _415
REMARK  166  A    between atoms: _415  and  _416
REMARK  167  A    between atoms: _419  and  _421
REMARK  168  A    between atoms: _421  and  _422
REMARK  169  A    between atoms: _421  and  _424
REMARK  170  A    between atoms: _427  and  _429
REMARK  171  A    between atoms: _429  and  _430
REMARK  172  A    between atoms: _429  and  _432
REMARK  173  A    between atoms: _432  and  _433
REMARK  174  A    between atoms: _436  and  _438
REMARK  175  A    between atoms: _438  and  _439
REMARK  176  A    between atoms: _441  and  _443
REMARK  177  A    between atoms: _443  and  _444
REMARK  178  A    between atoms: _443  and  _446
REMARK  179  A    between atoms: _449  and  _451
REMARK  180  A    between atoms: _451  and  _452
REMARK  181  A    between atoms: _454  and  _456
REMARK  182  A    between atoms: _456  and  _457
REMARK  183  A    between atoms: _456  and  _459
REMARK  184  A    between atoms: _459  and  _460
REMARK  185  A    between atoms: _463  and  _465
REMARK  186  A    between atoms: _465  and  _466
REMARK  187  A    between atoms: _465  and  _468
REMARK  188  A    between atoms: _468  and  _469
REMARK  189  A    between atoms: _474  and  _476
REMARK  190  A    between atoms: _476  and  _477
REMARK  191  A    between atoms: _476  and  _479
REMARK  192  A    between atoms: _482  and  _484
REMARK  193  A    between atoms: _484  and  _485
REMARK  194  A    between atoms: _484  and  _487
REMARK  195  A    between atoms: _487  and  _488
REMARK  196  A    between atoms: _488  and  _489
REMARK  197  A    between atoms: _494  and  _496
REMARK  198  A    between atoms: _496  and  _497
REMARK  199  A    between atoms: _501  and  _502
REMARK  200  A    between atoms: _507  and  _509
REMARK  201  A    between atoms: _509  and  _510
REMARK  202  A    between atoms: _509  and  _512
REMARK  203  A    between atoms: _512  and  _513
REMARK  204  A    between atoms: _513  and  _514
REMARK  205  A    between atoms: _517  and  _519
REMARK  206  A    between atoms: _519  and  _520
REMARK  207  A    between atoms: _519  and  _522
REMARK  208  A    between atoms: _525  and  _527
REMARK  209  A    between atoms: _527  and  _528
REMARK  210  A    between atoms: _527  and  _530
REMARK  211  A    between atoms: _530  and  _531
REMARK  212  A    between atoms: _535  and  _536
REMARK  213  A    between atoms: _541  and  _543
REMARK  214  A    between atoms: _543  and  _544
REMARK  215  A    between atoms: _543  and  _546
REMARK  216  A    between atoms: _546  and  _547
REMARK  217  A    between atoms: _550  and  _552
REMARK  218  A    between atoms: _552  and  _553
REMARK  219  A    between atoms: _556  and  _558
REMARK  220  A    between atoms: _558  and  _559
REMARK  221  A    between atoms: _558  and  _561
REMARK  222  A    between atoms: _561  and  _562
REMARK  223  A    between atoms: _565  and  _567
REMARK  224  A    between atoms: _567  and  _568
REMARK  225  A    between atoms: _567  and  _570
REMARK  226  A    between atoms: _570  and  _571
REMARK  227  A    between atoms: _573  and  _575
REMARK  228  A    between atoms: _575  and  _576
REMARK  229  A    between atoms: _578  and  _580
REMARK  230  A    between atoms: _580  and  _581
REMARK  231  A    between atoms: _580  and  _583
REMARK  232  A    between atoms: _583  and  _584
REMARK  233  A    between atoms: _587  and  _589
REMARK  234  A    between atoms: _589  and  _590
REMARK  235  A    between atoms: _589  and  _592
REMARK                            x       y       z     vdW  Elec       q    Type
REMARK                         _______ _______ _______ _____ _____    ______ ____
ROOT
ATOM      1  O   HOH     1      -6.717  -1.984   5.633  0.00  0.00    +0.000 OA
ENDROOT
TORSDOF 0
REMARK  Name = ../refined-set-2016/4xtv/4xtv_pocket.pdb
REMARK  235 active torsions:
REMARK  status: ('A' for Active; 'I' for Inactive)
REMARK    1  A    between atoms: _1  and  _3
REMARK    2  A    between atoms: _3  and  _4
REMARK    3  A    between atoms: _3  and  _6
REMARK    4  A    between atoms: _6  and  _7
REMARK    5  A    between atoms: _10  and  _12
REMARK    6  A    between atoms: _12  and  _13
REMARK    7  A    between atoms: _15  and  _17
REMARK    8  A    between atoms: _17  and  _18
REMARK    9  A    between atoms: _17  and  _20
REMARK   10  A    between atoms: _20  and  _21
REMARK   11  A    between atoms: _23  and  _25
REMARK   12  A    between atoms: _25  and  _26
REMARK   13  A    between atoms: _25  and  _28
REMARK   14  A    between atoms: _28  and  _29
REMARK   15  A    between atoms: _32  and  _34
REMARK   16  A    between atoms: _34  and  _35
REMARK   17  A    between atoms: _34  and  _37
REMARK   18  A    between atoms: _37  and  _38
REMARK   19  A    between atoms: _43  and  _45
REMARK   20  A    between atoms: _45  and  _46
REMARK   21  A    between atoms: _49  and  _51
REMARK   22  A    between atoms: _51  and  _52
REMARK   23  A    between atoms: _51  and  _54
REMARK   24  A    between atoms: _54  and  _55
REMARK   25  A    between atoms: _58  and  _60
REMARK   26  A    between atoms: _60  and  _61
REMARK   27  A    between atoms: _60  and  _63
REMARK   28  A    between atoms: _63  and  _64
REMARK   29  A    between atoms: _67  and  _69
REMARK   30  A    between atoms: _69  and  _70
REMARK   31  A    between atoms: _69  and  _72
REMARK   32  A    between atoms: _72  and  _73
REMARK   33  A    between atoms: _76  and  _78
REMARK   34  A    between atoms: _78  and  _79
REMARK   35  A    between atoms: _82  and  _84
REMARK   36  A    between atoms: _84  and  _85
REMARK   37  A    between atoms: _84  and  _87
REMARK   38  A    between atoms: _87  and  _88
REMARK   39  A    between atoms: _88  and  _89
REMARK   40  A    between atoms: _94  and  _96
REMARK   41  A    between atoms: _96  and  _97
REMARK   42  A    between atoms: _96  and  _99
REMARK   43  A    between atoms: _99  and  _100
REMARK   44  A    between atoms: _103  and  _105
REMARK   45  A    between atoms: _105  and  _106
REMARK   46  A    between atoms: _109  and  _111
REMARK   47  A    between atoms: _111  and  _112
REMARK   48  A    between atoms: _114  and  _116
REMARK   49  A    between atoms: _116  and  _117
REMARK   50  A    between atoms: _116  and  _119
REMARK   51  A    between atoms: _119  and  _120
REMARK   52  A    between atoms: _120  and  _121
REMARK   53  A    between atoms: _121  and  _122
REMARK   54  A    between atoms: _131  and  _133
REMARK   55  A    between atoms: _133  and  _134
REMARK   56  A    between atoms: _136  and  _138
REMARK   57  A    between atoms: _138  and  _139
REMARK   58  A    between atoms: _138  and  _141
REMARK   59  A    between atoms: _141  and  _142
REMARK   60  A    between atoms: _142  and  _143
REMARK   61  A    between atoms: _143  and  _144
REMARK   62  A    between atoms: _153  and  _155
REMARK   63  A    between atoms: _155  and  _156
REMARK   64  A    between atoms: _155  and  _158
REMARK   65  A    between atoms: _158  and  _159
REMARK   66  A    between atoms: _164  and  _166
REMARK   67  A    between atoms: _166  and  _167
REMARK   68  A    between atoms: _169  and  _171
REMARK   69  A    between atoms: _171  and  _172
REMARK   70  A    between atoms: _171  and  _174
REMARK   71  A    between atoms: _174  and  _175
REMARK   72  A    between atoms: _175  and  _176
REMARK   73  A    between atoms: _176  and  _177
REMARK   74  A    between atoms: _186  and  _188
REMARK   75  A    between atoms: _188  and  _189
REMARK   76  A    between atoms: _191  and  _193
REMARK   77  A    between atoms: _193  and  _194
REMARK   78  A    between atoms: _193  and  _196
REMARK   79  A    between atoms: _196  and  _197
REMARK   80  A    between atoms: _207  and  _209
REMARK   81  A    between atoms: _209  and  _210
REMARK   82  A    between atoms: _213  and  _215
REMARK   83  A    between atoms: _215  and  _216
REMARK   84  A    between atoms: _219  and  _221
REMARK   85  A    between atoms: _221  and  _222
REMARK   86  A    between atoms: _221  and  _224
REMARK   87  A    between atoms: _224  and  _225
REMARK   88  A    between atoms: _228  and  _230
REMARK   89  A    between atoms: _230  and  _231
REMARK   90  A    between atoms: _230  and  _233
REMARK   91  A    between atoms: _233  and  _234
REMARK   92  A    between atoms: _234  and  _235
REMARK   93  A    between atoms: _240  and  _242
REMARK   94  A    between atoms: _242  and  _243
REMARK   95  A    between atoms: _242  and  _245
REMARK   96  A    between atoms: _245  and  _246
REMARK   97  A    between atoms: _249  and  _251
REMARK   98  A    between atoms: _251  and  _252
REMARK   99  A    between atoms: _251  and  _254
REMARK  100  A    between atoms: _254  and  _255
REMARK  101  A    between atoms: _258  and  _260
REMARK  102  A    between atoms: _260  and  _261
REMARK  103  A    between atoms: _260  and  _263
REMARK  104  A    between atoms: _263  and  _264
REMARK  105  A    between atoms: _267  and  _269
REMARK  106  A    between atoms: _269  and  _270
REMARK  107  A    between atoms: _269  and  _272
REMARK  108  A    between atoms: _272  and  _273
REMARK  109  A    between atoms: _275  and  _277
REMARK  110  A    between atoms: _277  and  _278
REMARK  111  A    between atoms: _277  and  _280
REMARK  112  A    between atoms: _283  and  _285
REMARK  113  A    between atoms: _285  and  _286
REMARK  114  A    between atoms: _285  and  _288
REMARK  115  A    between atoms: _288  and  _289
REMARK  116  A    between atoms: _289  and  _290
REMARK  117  A    between atoms: _290  and  _291
REMARK  118  A    between atoms: _291  and  _292
REMARK  119  A    between atoms: _296  and  _298
REMARK  120  A    between atoms: _298  and  _299
REMARK  121  A    between atoms: _298  and  _301
REMARK  122  A    between atoms: _301  and  _302
REMARK  123  A    between atoms: _313  and  _314
REMARK  124  A    between atoms: _319  and  _321
REMARK  125  A    between atoms: _321  and  _322
REMARK  126  A    between atoms: _321  and  _324
REMARK  127  A    between atoms: _324  and  _325
REMARK  128  A    between atoms: _330  and  _332
REMARK  129  A    between atoms: _332  and  _333
REMARK  130  A    between atoms: _332  and  _335
REMARK  131  A    between atoms: _335  and  _336
REMARK  132  A    between atoms: _339  and  _341
REMARK  133  A    between atoms: _341  and  _342
REMARK  134  A    between atoms: _341  and  _344
REMARK  135  A    between atoms: _347  and  _349
REMARK  136  A    between atoms: _349  and  _350
REMARK  137  A    between atoms: _352  and  _354
REMARK  138  A    between atoms: _354  and  _355
REMARK  139  A    between atoms: _354  and  _357
REMARK  140  A    between atoms: _357  and  _358
REMARK  141  A    between atoms: _358  and  _359
REMARK  142  A    between atoms: _359  and  _360
REMARK  143  A    between atoms: _360  and  _361
REMARK  144  A    between atoms: _365  and  _367
REMARK  145  A    between atoms: _367  and  _368
REMARK  146  A    between atoms: _367  and  _370
REMARK  147  A    between atoms: _370  and  _371
REMARK  148  A    between atoms: _374  and  _376
REMARK  149  A    between atoms: _376  and  _377
REMARK  150  A    between atoms: _380  and  _382
REMARK  151  A    between atoms: _382  and  _383
REMARK  152  A    between atoms: _385  and  _387
REMARK  153  A    between atoms: _387  and  _388
REMARK  154  A    between atoms: _387  and  _390
REMARK  155  A    between atoms: _390  and  _391
REMARK  156  A    between atoms: _394  and  _396
REMARK  157  A    between atoms: _396  and  _397
REMARK  158  A    between atoms: _396  and  _399
REMARK  159  A    between atoms: _399  and  _400
REMARK  160  A    between atoms: _403  and  _405
REMARK  161  A    between atoms: _405  and  _406
REMARK  162  A    between atoms: _409  and  _411
REMARK  163  A    between atoms: _411  and  _412
REMARK  164  A    between atoms: _411  and  _414
REMARK  165  A    between atoms: _414  and  _415
REMARK  166  A    between atoms: _415  and  _416
REMARK  167  A    between atoms: _419  and  _421
REMARK  168  A    between atoms: _421  and  _422
REMARK  169  A    between atoms: _421  and  _424
REMARK  170  A    between atoms: _427  and  _429
REMARK  171  A    between atoms: _429  and  _430
REMARK  172  A    between atoms: _429  and  _432
REMARK  173  A    between atoms: _432  and  _433
REMARK  174  A    between atoms: _436  and  _438
REMARK  175  A    between atoms: _438  and  _439
REMARK  176  A    between atoms: _441  and  _443
REMARK  177  A    between atoms: _443  and  _444
REMARK  178  A    between atoms: _443  and  _446
REMARK  179  A    between atoms: _449  and  _451
REMARK  180  A    between atoms: _451  and  _452
REMARK  181  A    between atoms: _454  and  _456
REMARK  182  A    between atoms: _456  and  _457
REMARK  183  A    between atoms: _456  and  _459
REMARK  184  A    between atoms: _459  and  _460
REMARK  185  A    between atoms: _463  and  _465
REMARK  186  A    between atoms: _465  and  _466
REMARK  187  A    between atoms: _465  and  _468
REMARK  188  A    between atoms: _468  and  _469
REMARK  189  A    between atoms: _474  and  _476
REMARK  190  A    between atoms: _476  and  _477
REMARK  191  A    between atoms: _476  and  _479
REMARK  192  A    between atoms: _482  and  _484
REMARK  193  A    between atoms: _484  and  _485
REMARK  194  A    between atoms: _484  and  _487
REMARK  195  A    between atoms: _487  and  _488
REMARK  196  A    between atoms: _488  and  _489
REMARK  197  A    between atoms: _494  and  _496
REMARK  198  A    between atoms: _496  and  _497
REMARK  199  A    between atoms: _501  and  _502
REMARK  200  A    between atoms: _507  and  _509
REMARK  201  A    between atoms: _509  and  _510
REMARK  202  A    between atoms: _509  and  _512
REMARK  203  A    between atoms: _512  and  _513
REMARK  204  A    between atoms: _513  and  _514
REMARK  205  A    between atoms: _517  and  _519
REMARK  206  A    between atoms: _519  and  _520
REMARK  207  A    between atoms: _519  and  _522
REMARK  208  A    between atoms: _525  and  _527
REMARK  209  A    between atoms: _527  and  _528
REMARK  210  A    between atoms: _527  and  _530
REMARK  211  A    between atoms: _530  and  _531
REMARK  212  A    between atoms: _535  and  _536
REMARK  213  A    between atoms: _541  and  _543
REMARK  214  A    between atoms: _543  and  _544
REMARK  215  A    between atoms: _543  and  _546
REMARK  216  A    between atoms: _546  and  _547
REMARK  217  A    between atoms: _550  and  _552
REMARK  218  A    between atoms: _552  and  _553
REMARK  219  A    between atoms: _556  and  _558
REMARK  220  A    between atoms: _558  and  _559
REMARK  221  A    between atoms: _558  and  _561
REMARK  222  A    between atoms: _561  and  _562
REMARK  223  A    between atoms: _565  and  _567
REMARK  224  A    between atoms: _567  and  _568
REMARK  225  A    between atoms: _567  and  _570
REMARK  226  A    between atoms: _570  and  _571
REMARK  227  A    between atoms: _573  and  _575
REMARK  228  A    between atoms: _575  and  _576
REMARK  229  A    between atoms: _578  and  _580
REMARK  230  A    between atoms: _580  and  _581
REMARK  231  A    between atoms: _580  and  _583
REMARK  232  A    between atoms: _583  and  _584
REMARK  233  A    between atoms: _587  and  _589
REMARK  234  A    between atoms: _589  and  _590
REMARK  235  A    between atoms: _589  and  _592
REMARK                            x       y       z     vdW  Elec       q    Type
REMARK                         _______ _______ _______ _____ _____    ______ ____
ROOT
ATOM      1  O   HOH     1       0.864   0.303   8.784  0.00  0.00    +0.000 OA
ENDROOT
TORSDOF 0
REMARK  Name = ../refined-set-2016/4xtv/4xtv_pocket.pdb
REMARK  235 active torsions:
REMARK  status: ('A' for Active; 'I' for Inactive)
REMARK    1  A    between atoms: _1  and  _3
REMARK    2  A    between atoms: _3  and  _4
REMARK    3  A    between atoms: _3  and  _6
REMARK    4  A    between atoms: _6  and  _7
REMARK    5  A    between atoms: _10  and  _12
REMARK    6  A    between atoms: _12  and  _13
REMARK    7  A    between atoms: _15  and  _17
REMARK    8  A    between atoms: _17  and  _18
REMARK    9  A    between atoms: _17  and  _20
REMARK   10  A    between atoms: _20  and  _21
REMARK   11  A    between atoms: _23  and  _25
REMARK   12  A    between atoms: _25  and  _26
REMARK   13  A    between atoms: _25  and  _28
REMARK   14  A    between atoms: _28  and  _29
REMARK   15  A    between atoms: _32  and  _34
REMARK   16  A    between atoms: _34  and  _35
REMARK   17  A    between atoms: _34  and  _37
REMARK   18  A    between atoms: _37  and  _38
REMARK   19  A    between atoms: _43  and  _45
REMARK   20  A    between atoms: _45  and  _46
REMARK   21  A    between atoms: _49  and  _51
REMARK   22  A    between atoms: _51  and  _52
REMARK   23  A    between atoms: _51  and  _54
REMARK   24  A    between atoms: _54  and  _55
REMARK   25  A    between atoms: _58  and  _60
REMARK   26  A    between atoms: _60  and  _61
REMARK   27  A    between atoms: _60  and  _63
REMARK   28  A    between atoms: _63  and  _64
REMARK   29  A    between atoms: _67  and  _69
REMARK   30  A    between atoms: _69  and  _70
REMARK   31  A    between atoms: _69  and  _72
REMARK   32  A    between atoms: _72  and  _73
REMARK   33  A    between atoms: _76  and  _78
REMARK   34  A    between atoms: _78  and  _79
REMARK   35  A    between atoms: _82  and  _84
REMARK   36  A    between atoms: _84  and  _85
REMARK   37  A    between atoms: _84  and  _87
REMARK   38  A    between atoms: _87  and  _88
REMARK   39  A    between atoms: _88  and  _89
REMARK   40  A    between atoms: _94  and  _96
REMARK   41  A    between atoms: _96  and  _97
REMARK   42  A    between atoms: _96  and  _99
REMARK   43  A    between atoms: _99  and  _100
REMARK   44  A    between atoms: _103  and  _105
REMARK   45  A    between atoms: _105  and  _106
REMARK   46  A    between atoms: _109  and  _111
REMARK   47  A    between atoms: _111  and  _112
REMARK   48  A    between atoms: _114  and  _116
REMARK   49  A    between atoms: _116  and  _117
REMARK   50  A    between atoms: _116  and  _119
REMARK   51  A    between atoms: _119  and  _120
REMARK   52  A    between atoms: _120  and  _121
REMARK   53  A    between atoms: _121  and  _122
REMARK   54  A    between atoms: _131  and  _133
REMARK   55  A    between atoms: _133  and  _134
REMARK   56  A    between atoms: _136  and  _138
REMARK   57  A    between atoms: _138  and  _139
REMARK   58  A    between atoms: _138  and  _141
REMARK   59  A    between atoms: _141  and  _142
REMARK   60  A    between atoms: _142  and  _143
REMARK   61  A    between atoms: _143  and  _144
REMARK   62  A    between atoms: _153  and  _155
REMARK   63  A    between atoms: _155  and  _156
REMARK   64  A    between atoms: _155  and  _158
REMARK   65  A    between atoms: _158  and  _159
REMARK   66  A    between atoms: _164  and  _166
REMARK   67  A    between atoms: _166  and  _167
REMARK   68  A    between atoms: _169  and  _171
REMARK   69  A    between atoms: _171  and  _172
REMARK   70  A    between atoms: _171  and  _174
REMARK   71  A    between atoms: _174  and  _175
REMARK   72  A    between atoms: _175  and  _176
REMARK   73  A    between atoms: _176  and  _177
REMARK   74  A    between atoms: _186  and  _188
REMARK   75  A    between atoms: _188  and  _189
REMARK   76  A    between atoms: _191  and  _193
REMARK   77  A    between atoms: _193  and  _194
REMARK   78  A    between atoms: _193  and  _196
REMARK   79  A    between atoms: _196  and  _197
REMARK   80  A    between atoms: _207  and  _209
REMARK   81  A    between atoms: _209  and  _210
REMARK   82  A    between atoms: _213  and  _215
REMARK   83  A    between atoms: _215  and  _216
REMARK   84  A    between atoms: _219  and  _221
REMARK   85  A    between atoms: _221  and  _222
REMARK   86  A    between atoms: _221  and  _224
REMARK   87  A    between atoms: _224  and  _225
REMARK   88  A    between atoms: _228  and  _230
REMARK   89  A    between atoms: _230  and  _231
REMARK   90  A    between atoms: _230  and  _233
REMARK   91  A    between atoms: _233  and  _234
REMARK   92  A    between atoms: _234  and  _235
REMARK   93  A    between atoms: _240  and  _242
REMARK   94  A    between atoms: _242  and  _243
REMARK   95  A    between atoms: _242  and  _245
REMARK   96  A    between atoms: _245  and  _246
REMARK   97  A    between atoms: _249  and  _251
REMARK   98  A    between atoms: _251  and  _252
REMARK   99  A    between atoms: _251  and  _254
REMARK  100  A    between atoms: _254  and  _255
REMARK  101  A    between atoms: _258  and  _260
REMARK  102  A    between atoms: _260  and  _261
REMARK  103  A    between atoms: _260  and  _263
REMARK  104  A    between atoms: _263  and  _264
REMARK  105  A    between atoms: _267  and  _269
REMARK  106  A    between atoms: _269  and  _270
REMARK  107  A    between atoms: _269  and  _272
REMARK  108  A    between atoms: _272  and  _273
REMARK  109  A    between atoms: _275  and  _277
REMARK  110  A    between atoms: _277  and  _278
REMARK  111  A    between atoms: _277  and  _280
REMARK  112  A    between atoms: _283  and  _285
REMARK  113  A    between atoms: _285  and  _286
REMARK  114  A    between atoms: _285  and  _288
REMARK  115  A    between atoms: _288  and  _289
REMARK  116  A    between atoms: _289  and  _290
REMARK  117  A    between atoms: _290  and  _291
REMARK  118  A    between atoms: _291  and  _292
REMARK  119  A    between atoms: _296  and  _298
REMARK  120  A    between atoms: _298  and  _299
REMARK  121  A    between atoms: _298  and  _301
REMARK  122  A    between atoms: _301  and  _302
REMARK  123  A    between atoms: _313  and  _314
REMARK  124  A    between atoms: _319  and  _321
REMARK  125  A    between atoms: _321  and  _322
REMARK  126  A    between atoms: _321  and  _324
REMARK  127  A    between atoms: _324  and  _325
REMARK  128  A    between atoms: _330  and  _332
REMARK  129  A    between atoms: _332  and  _333
REMARK  130  A    between atoms: _332  and  _335
REMARK  131  A    between atoms: _335  and  _336
REMARK  132  A    between atoms: _339  and  _341
REMARK  133  A    between atoms: _341  and  _342
REMARK  134  A    between atoms: _341  and  _344
REMARK  135  A    between atoms: _347  and  _349
REMARK  136  A    between atoms: _349  and  _350
REMARK  137  A    between atoms: _352  and  _354
REMARK  138  A    between atoms: _354  and  _355
REMARK  139  A    between atoms: _354  and  _357
REMARK  140  A    between atoms: _357  and  _358
REMARK  141  A    between atoms: _358  and  _359
REMARK  142  A    between atoms: _359  and  _360
REMARK  143  A    between atoms: _360  and  _361
REMARK  144  A    between atoms: _365  and  _367
REMARK  145  A    between atoms: _367  and  _368
REMARK  146  A    between atoms: _367  and  _370
REMARK  147  A    between atoms: _370  and  _371
REMARK  148  A    between atoms: _374  and  _376
REMARK  149  A    between atoms: _376  and  _377
REMARK  150  A    between atoms: _380  and  _382
REMARK  151  A    between atoms: _382  and  _383
REMARK  152  A    between atoms: _385  and  _387
REMARK  153  A    between atoms: _387  and  _388
REMARK  154  A    between atoms: _387  and  _390
REMARK  155  A    between atoms: _390  and  _391
REMARK  156  A    between atoms: _394  and  _396
REMARK  157  A    between atoms: _396  and  _397
REMARK  158  A    between atoms: _396  and  _399
REMARK  159  A    between atoms: _399  and  _400
REMARK  160  A    between atoms: _403  and  _405
REMARK  161  A    between atoms: _405  and  _406
REMARK  162  A    between atoms: _409  and  _411
REMARK  163  A    between atoms: _411  and  _412
REMARK  164  A    between atoms: _411  and  _414
REMARK  165  A    between atoms: _414  and  _415
REMARK  166  A    between atoms: _415  and  _416
REMARK  167  A    between atoms: _419  and  _421
REMARK  168  A    between atoms: _421  and  _422
REMARK  169  A    between atoms: _421  and  _424
REMARK  170  A    between atoms: _427  and  _429
REMARK  171  A    between atoms: _429  and  _430
REMARK  172  A    between atoms: _429  and  _432
REMARK  173  A    between atoms: _432  and  _433
REMARK  174  A    between atoms: _436  and  _438
REMARK  175  A    between atoms: _438  and  _439
REMARK  176  A    between atoms: _441  and  _443
REMARK  177  A    between atoms: _443  and  _444
REMARK  178  A    between atoms: _443  and  _446
REMARK  179  A    between atoms: _449  and  _451
REMARK  180  A    between atoms: _451  and  _452
REMARK  181  A    between atoms: _454  and  _456
REMARK  182  A    between atoms: _456  and  _457
REMARK  183  A    between atoms: _456  and  _459
REMARK  184  A    between atoms: _459  and  _460
REMARK  185  A    between atoms: _463  and  _465
REMARK  186  A    between atoms: _465  and  _466
REMARK  187  A    between atoms: _465  and  _468
REMARK  188  A    between atoms: _468  and  _469
REMARK  189  A    between atoms: _474  and  _476
REMARK  190  A    between atoms: _476  and  _477
REMARK  191  A    between atoms: _476  and  _479
REMARK  192  A    between atoms: _482  and  _484
REMARK  193  A    between atoms: _484  and  _485
REMARK  194  A    between atoms: _484  and  _487
REMARK  195  A    between atoms: _487  and  _488
REMARK  196  A    between atoms: _488  and  _489
REMARK  197  A    between atoms: _494  and  _496
REMARK  198  A    between atoms: _496  and  _497
REMARK  199  A    between atoms: _501  and  _502
REMARK  200  A    between atoms: _507  and  _509
REMARK  201  A    between atoms: _509  and  _510
REMARK  202  A    between atoms: _509  and  _512
REMARK  203  A    between atoms: _512  and  _513
REMARK  204  A    between atoms: _513  and  _514
REMARK  205  A    between atoms: _517  and  _519
REMARK  206  A    between atoms: _519  and  _520
REMARK  207  A    between atoms: _519  and  _522
REMARK  208  A    between atoms: _525  and  _527
REMARK  209  A    between atoms: _527  and  _528
REMARK  210  A    between atoms: _527  and  _530
REMARK  211  A    between atoms: _530  and  _531
REMARK  212  A    between atoms: _535  and  _536
REMARK  213  A    between atoms: _541  and  _543
REMARK  214  A    between atoms: _543  and  _544
REMARK  215  A    between atoms: _543  and  _546
REMARK  216  A    between atoms: _546  and  _547
REMARK  217  A    between atoms: _550  and  _552
REMARK  218  A    between atoms: _552  and  _553
REMARK  219  A    between atoms: _556  and  _558
REMARK  220  A    between atoms: _558  and  _559
REMARK  221  A    between atoms: _558  and  _561
REMARK  222  A    between atoms: _561  and  _562
REMARK  223  A    between atoms: _565  and  _567
REMARK  224  A    between atoms: _567  and  _568
REMARK  225  A    between atoms: _567  and  _570
REMARK  226  A    between atoms: _570  and  _571
REMARK  227  A    between atoms: _573  and  _575
REMARK  228  A    between atoms: _575  and  _576
REMARK  229  A    between atoms: _578  and  _580
REMARK  230  A    between atoms: _580  and  _581
REMARK  231  A    between atoms: _580  and  _583
REMARK  232  A    between atoms: _583  and  _584
REMARK  233  A    between atoms: _587  and  _589
REMARK  234  A    between atoms: _589  and  _590
REMARK  235  A    between atoms: _589  and  _592
REMARK                            x       y       z     vdW  Elec       q    Type
REMARK                         _______ _______ _______ _____ _____    ______ ____
ROOT
ATOM      1  O   HOH     1      -2.988 -12.943   5.276  0.00  0.00    +0.000 OA
ENDROOT
TORSDOF 0
REMARK  Name = ../refined-set-2016/4xtv/4xtv_pocket.pdb
REMARK  235 active torsions:
REMARK  status: ('A' for Active; 'I' for Inactive)
REMARK    1  A    between atoms: _1  and  _3
REMARK    2  A    between atoms: _3  and  _4
REMARK    3  A    between atoms: _3  and  _6
REMARK    4  A    between atoms: _6  and  _7
REMARK    5  A    between atoms: _10  and  _12
REMARK    6  A    between atoms: _12  and  _13
REMARK    7  A    between atoms: _15  and  _17
REMARK    8  A    between atoms: _17  and  _18
REMARK    9  A    between atoms: _17  and  _20
REMARK   10  A    between atoms: _20  and  _21
REMARK   11  A    between atoms: _23  and  _25
REMARK   12  A    between atoms: _25  and  _26
REMARK   13  A    between atoms: _25  and  _28
REMARK   14  A    between atoms: _28  and  _29
REMARK   15  A    between atoms: _32  and  _34
REMARK   16  A    between atoms: _34  and  _35
REMARK   17  A    between atoms: _34  and  _37
REMARK   18  A    between atoms: _37  and  _38
REMARK   19  A    between atoms: _43  and  _45
REMARK   20  A    between atoms: _45  and  _46
REMARK   21  A    between atoms: _49  and  _51
REMARK   22  A    between atoms: _51  and  _52
REMARK   23  A    between atoms: _51  and  _54
REMARK   24  A    between atoms: _54  and  _55
REMARK   25  A    between atoms: _58  and  _60
REMARK   26  A    between atoms: _60  and  _61
REMARK   27  A    between atoms: _60  and  _63
REMARK   28  A    between atoms: _63  and  _64
REMARK   29  A    between atoms: _67  and  _69
REMARK   30  A    between atoms: _69  and  _70
REMARK   31  A    between atoms: _69  and  _72
REMARK   32  A    between atoms: _72  and  _73
REMARK   33  A    between atoms: _76  and  _78
REMARK   34  A    between atoms: _78  and  _79
REMARK   35  A    between atoms: _82  and  _84
REMARK   36  A    between atoms: _84  and  _85
REMARK   37  A    between atoms: _84  and  _87
REMARK   38  A    between atoms: _87  and  _88
REMARK   39  A    between atoms: _88  and  _89
REMARK   40  A    between atoms: _94  and  _96
REMARK   41  A    between atoms: _96  and  _97
REMARK   42  A    between atoms: _96  and  _99
REMARK   43  A    between atoms: _99  and  _100
REMARK   44  A    between atoms: _103  and  _105
REMARK   45  A    between atoms: _105  and  _106
REMARK   46  A    between atoms: _109  and  _111
REMARK   47  A    between atoms: _111  and  _112
REMARK   48  A    between atoms: _114  and  _116
REMARK   49  A    between atoms: _116  and  _117
REMARK   50  A    between atoms: _116  and  _119
REMARK   51  A    between atoms: _119  and  _120
REMARK   52  A    between atoms: _120  and  _121
REMARK   53  A    between atoms: _121  and  _122
REMARK   54  A    between atoms: _131  and  _133
REMARK   55  A    between atoms: _133  and  _134
REMARK   56  A    between atoms: _136  and  _138
REMARK   57  A    between atoms: _138  and  _139
REMARK   58  A    between atoms: _138  and  _141
REMARK   59  A    between atoms: _141  and  _142
REMARK   60  A    between atoms: _142  and  _143
REMARK   61  A    between atoms: _143  and  _144
REMARK   62  A    between atoms: _153  and  _155
REMARK   63  A    between atoms: _155  and  _156
REMARK   64  A    between atoms: _155  and  _158
REMARK   65  A    between atoms: _158  and  _159
REMARK   66  A    between atoms: _164  and  _166
REMARK   67  A    between atoms: _166  and  _167
REMARK   68  A    between atoms: _169  and  _171
REMARK   69  A    between atoms: _171  and  _172
REMARK   70  A    between atoms: _171  and  _174
REMARK   71  A    between atoms: _174  and  _175
REMARK   72  A    between atoms: _175  and  _176
REMARK   73  A    between atoms: _176  and  _177
REMARK   74  A    between atoms: _186  and  _188
REMARK   75  A    between atoms: _188  and  _189
REMARK   76  A    between atoms: _191  and  _193
REMARK   77  A    between atoms: _193  and  _194
REMARK   78  A    between atoms: _193  and  _196
REMARK   79  A    between atoms: _196  and  _197
REMARK   80  A    between atoms: _207  and  _209
REMARK   81  A    between atoms: _209  and  _210
REMARK   82  A    between atoms: _213  and  _215
REMARK   83  A    between atoms: _215  and  _216
REMARK   84  A    between atoms: _219  and  _221
REMARK   85  A    between atoms: _221  and  _222
REMARK   86  A    between atoms: _221  and  _224
REMARK   87  A    between atoms: _224  and  _225
REMARK   88  A    between atoms: _228  and  _230
REMARK   89  A    between atoms: _230  and  _231
REMARK   90  A    between atoms: _230  and  _233
REMARK   91  A    between atoms: _233  and  _234
REMARK   92  A    between atoms: _234  and  _235
REMARK   93  A    between atoms: _240  and  _242
REMARK   94  A    between atoms: _242  and  _243
REMARK   95  A    between atoms: _242  and  _245
REMARK   96  A    between atoms: _245  and  _246
REMARK   97  A    between atoms: _249  and  _251
REMARK   98  A    between atoms: _251  and  _252
REMARK   99  A    between atoms: _251  and  _254
REMARK  100  A    between atoms: _254  and  _255
REMARK  101  A    between atoms: _258  and  _260
REMARK  102  A    between atoms: _260  and  _261
REMARK  103  A    between atoms: _260  and  _263
REMARK  104  A    between atoms: _263  and  _264
REMARK  105  A    between atoms: _267  and  _269
REMARK  106  A    between atoms: _269  and  _270
REMARK  107  A    between atoms: _269  and  _272
REMARK  108  A    between atoms: _272  and  _273
REMARK  109  A    between atoms: _275  and  _277
REMARK  110  A    between atoms: _277  and  _278
REMARK  111  A    between atoms: _277  and  _280
REMARK  112  A    between atoms: _283  and  _285
REMARK  113  A    between atoms: _285  and  _286
REMARK  114  A    between atoms: _285  and  _288
REMARK  115  A    between atoms: _288  and  _289
REMARK  116  A    between atoms: _289  and  _290
REMARK  117  A    between atoms: _290  and  _291
REMARK  118  A    between atoms: _291  and  _292
REMARK  119  A    between atoms: _296  and  _298
REMARK  120  A    between atoms: _298  and  _299
REMARK  121  A    between atoms: _298  and  _301
REMARK  122  A    between atoms: _301  and  _302
REMARK  123  A    between atoms: _313  and  _314
REMARK  124  A    between atoms: _319  and  _321
REMARK  125  A    between atoms: _321  and  _322
REMARK  126  A    between atoms: _321  and  _324
REMARK  127  A    between atoms: _324  and  _325
REMARK  128  A    between atoms: _330  and  _332
REMARK  129  A    between atoms: _332  and  _333
REMARK  130  A    between atoms: _332  and  _335
REMARK  131  A    between atoms: _335  and  _336
REMARK  132  A    between atoms: _339  and  _341
REMARK  133  A    between atoms: _341  and  _342
REMARK  134  A    between atoms: _341  and  _344
REMARK  135  A    between atoms: _347  and  _349
REMARK  136  A    between atoms: _349  and  _350
REMARK  137  A    between atoms: _352  and  _354
REMARK  138  A    between atoms: _354  and  _355
REMARK  139  A    between atoms: _354  and  _357
REMARK  140  A    between atoms: _357  and  _358
REMARK  141  A    between atoms: _358  and  _359
REMARK  142  A    between atoms: _359  and  _360
REMARK  143  A    between atoms: _360  and  _361
REMARK  144  A    between atoms: _365  and  _367
REMARK  145  A    between atoms: _367  and  _368
REMARK  146  A    between atoms: _367  and  _370
REMARK  147  A    between atoms: _370  and  _371
REMARK  148  A    between atoms: _374  and  _376
REMARK  149  A    between atoms: _376  and  _377
REMARK  150  A    between atoms: _380  and  _382
REMARK  151  A    between atoms: _382  and  _383
REMARK  152  A    between atoms: _385  and  _387
REMARK  153  A    between atoms: _387  and  _388
REMARK  154  A    between atoms: _387  and  _390
REMARK  155  A    between atoms: _390  and  _391
REMARK  156  A    between atoms: _394  and  _396
REMARK  157  A    between atoms: _396  and  _397
REMARK  158  A    between atoms: _396  and  _399
REMARK  159  A    between atoms: _399  and  _400
REMARK  160  A    between atoms: _403  and  _405
REMARK  161  A    between atoms: _405  and  _406
REMARK  162  A    between atoms: _409  and  _411
REMARK  163  A    between atoms: _411  and  _412
REMARK  164  A    between atoms: _411  and  _414
REMARK  165  A    between atoms: _414  and  _415
REMARK  166  A    between atoms: _415  and  _416
REMARK  167  A    between atoms: _419  and  _421
REMARK  168  A    between atoms: _421  and  _422
REMARK  169  A    between atoms: _421  and  _424
REMARK  170  A    between atoms: _427  and  _429
REMARK  171  A    between atoms: _429  and  _430
REMARK  172  A    between atoms: _429  and  _432
REMARK  173  A    between atoms: _432  and  _433
REMARK  174  A    between atoms: _436  and  _438
REMARK  175  A    between atoms: _438  and  _439
REMARK  176  A    between atoms: _441  and  _443
REMARK  177  A    between atoms: _443  and  _444
REMARK  178  A    between atoms: _443  and  _446
REMARK  179  A    between atoms: _449  and  _451
REMARK  180  A    between atoms: _451  and  _452
REMARK  181  A    between atoms: _454  and  _456
REMARK  182  A    between atoms: _456  and  _457
REMARK  183  A    between atoms: _456  and  _459
REMARK  184  A    between atoms: _459  and  _460
REMARK  185  A    between atoms: _463  and  _465
REMARK  186  A    between atoms: _465  and  _466
REMARK  187  A    between atoms: _465  and  _468
REMARK  188  A    between atoms: _468  and  _469
REMARK  189  A    between atoms: _474  and  _476
REMARK  190  A    between atoms: _476  and  _477
REMARK  191  A    between atoms: _476  and  _479
REMARK  192  A    between atoms: _482  and  _484
REMARK  193  A    between atoms: _484  and  _485
REMARK  194  A    between atoms: _484  and  _487
REMARK  195  A    between atoms: _487  and  _488
REMARK  196  A    between atoms: _488  and  _489
REMARK  197  A    between atoms: _494  and  _496
REMARK  198  A    between atoms: _496  and  _497
REMARK  199  A    between atoms: _501  and  _502
REMARK  200  A    between atoms: _507  and  _509
REMARK  201  A    between atoms: _509  and  _510
REMARK  202  A    between atoms: _509  and  _512
REMARK  203  A    between atoms: _512  and  _513
REMARK  204  A    between atoms: _513  and  _514
REMARK  205  A    between atoms: _517  and  _519
REMARK  206  A    between atoms: _519  and  _520
REMARK  207  A    between atoms: _519  and  _522
REMARK  208  A    between atoms: _525  and  _527
REMARK  209  A    between atoms: _527  and  _528
REMARK  210  A    between atoms: _527  and  _530
REMARK  211  A    between atoms: _530  and  _531
REMARK  212  A    between atoms: _535  and  _536
REMARK  213  A    between atoms: _541  and  _543
REMARK  214  A    between atoms: _543  and  _544
REMARK  215  A    between atoms: _543  and  _546
REMARK  216  A    between atoms: _546  and  _547
REMARK  217  A    between atoms: _550  and  _552
REMARK  218  A    between atoms: _552  and  _553
REMARK  219  A    between atoms: _556  and  _558
REMARK  220  A    between atoms: _558  and  _559
REMARK  221  A    between atoms: _558  and  _561
REMARK  222  A    between atoms: _561  and  _562
REMARK  223  A    between atoms: _565  and  _567
REMARK  224  A    between atoms: _567  and  _568
REMARK  225  A    between atoms: _567  and  _570
REMARK  226  A    between atoms: _570  and  _571
REMARK  227  A    between atoms: _573  and  _575
REMARK  228  A    between atoms: _575  and  _576
REMARK  229  A    between atoms: _578  and  _580
REMARK  230  A    between atoms: _580  and  _581
REMARK  231  A    between atoms: _580  and  _583
REMARK  232  A    between atoms: _583  and  _584
REMARK  233  A    between atoms: _587  and  _589
REMARK  234  A    between atoms: _589  and  _590
REMARK  235  A    between atoms: _589  and  _592
REMARK                            x       y       z     vdW  Elec       q    Type
REMARK                         _______ _______ _______ _____ _____    ______ ____
ROOT
ATOM      1  O   HOH     1      -5.053   2.515   6.178  0.00  0.00    +0.000 OA
ENDROOT
TORSDOF 0
REMARK  Name = ../refined-set-2016/4xtv/4xtv_pocket.pdb
REMARK  235 active torsions:
REMARK  status: ('A' for Active; 'I' for Inactive)
REMARK    1  A    between atoms: _1  and  _3
REMARK    2  A    between atoms: _3  and  _4
REMARK    3  A    between atoms: _3  and  _6
REMARK    4  A    between atoms: _6  and  _7
REMARK    5  A    between atoms: _10  and  _12
REMARK    6  A    between atoms: _12  and  _13
REMARK    7  A    between atoms: _15  and  _17
REMARK    8  A    between atoms: _17  and  _18
REMARK    9  A    between atoms: _17  and  _20
REMARK   10  A    between atoms: _20  and  _21
REMARK   11  A    between atoms: _23  and  _25
REMARK   12  A    between atoms: _25  and  _26
REMARK   13  A    between atoms: _25  and  _28
REMARK   14  A    between atoms: _28  and  _29
REMARK   15  A    between atoms: _32  and  _34
REMARK   16  A    between atoms: _34  and  _35
REMARK   17  A    between atoms: _34  and  _37
REMARK   18  A    between atoms: _37  and  _38
REMARK   19  A    between atoms: _43  and  _45
REMARK   20  A    between atoms: _45  and  _46
REMARK   21  A    between atoms: _49  and  _51
REMARK   22  A    between atoms: _51  and  _52
REMARK   23  A    between atoms: _51  and  _54
REMARK   24  A    between atoms: _54  and  _55
REMARK   25  A    between atoms: _58  and  _60
REMARK   26  A    between atoms: _60  and  _61
REMARK   27  A    between atoms: _60  and  _63
REMARK   28  A    between atoms: _63  and  _64
REMARK   29  A    between atoms: _67  and  _69
REMARK   30  A    between atoms: _69  and  _70
REMARK   31  A    between atoms: _69  and  _72
REMARK   32  A    between atoms: _72  and  _73
REMARK   33  A    between atoms: _76  and  _78
REMARK   34  A    between atoms: _78  and  _79
REMARK   35  A    between atoms: _82  and  _84
REMARK   36  A    between atoms: _84  and  _85
REMARK   37  A    between atoms: _84  and  _87
REMARK   38  A    between atoms: _87  and  _88
REMARK   39  A    between atoms: _88  and  _89
REMARK   40  A    between atoms: _94  and  _96
REMARK   41  A    between atoms: _96  and  _97
REMARK   42  A    between atoms: _96  and  _99
REMARK   43  A    between atoms: _99  and  _100
REMARK   44  A    between atoms: _103  and  _105
REMARK   45  A    between atoms: _105  and  _106
REMARK   46  A    between atoms: _109  and  _111
REMARK   47  A    between atoms: _111  and  _112
REMARK   48  A    between atoms: _114  and  _116
REMARK   49  A    between atoms: _116  and  _117
REMARK   50  A    between atoms: _116  and  _119
REMARK   51  A    between atoms: _119  and  _120
REMARK   52  A    between atoms: _120  and  _121
REMARK   53  A    between atoms: _121  and  _122
REMARK   54  A    between atoms: _131  and  _133
REMARK   55  A    between atoms: _133  and  _134
REMARK   56  A    between atoms: _136  and  _138
REMARK   57  A    between atoms: _138  and  _139
REMARK   58  A    between atoms: _138  and  _141
REMARK   59  A    between atoms: _141  and  _142
REMARK   60  A    between atoms: _142  and  _143
REMARK   61  A    between atoms: _143  and  _144
REMARK   62  A    between atoms: _153  and  _155
REMARK   63  A    between atoms: _155  and  _156
REMARK   64  A    between atoms: _155  and  _158
REMARK   65  A    between atoms: _158  and  _159
REMARK   66  A    between atoms: _164  and  _166
REMARK   67  A    between atoms: _166  and  _167
REMARK   68  A    between atoms: _169  and  _171
REMARK   69  A    between atoms: _171  and  _172
REMARK   70  A    between atoms: _171  and  _174
REMARK   71  A    between atoms: _174  and  _175
REMARK   72  A    between atoms: _175  and  _176
REMARK   73  A    between atoms: _176  and  _177
REMARK   74  A    between atoms: _186  and  _188
REMARK   75  A    between atoms: _188  and  _189
REMARK   76  A    between atoms: _191  and  _193
REMARK   77  A    between atoms: _193  and  _194
REMARK   78  A    between atoms: _193  and  _196
REMARK   79  A    between atoms: _196  and  _197
REMARK   80  A    between atoms: _207  and  _209
REMARK   81  A    between atoms: _209  and  _210
REMARK   82  A    between atoms: _213  and  _215
REMARK   83  A    between atoms: _215  and  _216
REMARK   84  A    between atoms: _219  and  _221
REMARK   85  A    between atoms: _221  and  _222
REMARK   86  A    between atoms: _221  and  _224
REMARK   87  A    between atoms: _224  and  _225
REMARK   88  A    between atoms: _228  and  _230
REMARK   89  A    between atoms: _230  and  _231
REMARK   90  A    between atoms: _230  and  _233
REMARK   91  A    between atoms: _233  and  _234
REMARK   92  A    between atoms: _234  and  _235
REMARK   93  A    between atoms: _240  and  _242
REMARK   94  A    between atoms: _242  and  _243
REMARK   95  A    between atoms: _242  and  _245
REMARK   96  A    between atoms: _245  and  _246
REMARK   97  A    between atoms: _249  and  _251
REMARK   98  A    between atoms: _251  and  _252
REMARK   99  A    between atoms: _251  and  _254
REMARK  100  A    between atoms: _254  and  _255
REMARK  101  A    between atoms: _258  and  _260
REMARK  102  A    between atoms: _260  and  _261
REMARK  103  A    between atoms: _260  and  _263
REMARK  104  A    between atoms: _263  and  _264
REMARK  105  A    between atoms: _267  and  _269
REMARK  106  A    between atoms: _269  and  _270
REMARK  107  A    between atoms: _269  and  _272
REMARK  108  A    between atoms: _272  and  _273
REMARK  109  A    between atoms: _275  and  _277
REMARK  110  A    between atoms: _277  and  _278
REMARK  111  A    between atoms: _277  and  _280
REMARK  112  A    between atoms: _283  and  _285
REMARK  113  A    between atoms: _285  and  _286
REMARK  114  A    between atoms: _285  and  _288
REMARK  115  A    between atoms: _288  and  _289
REMARK  116  A    between atoms: _289  and  _290
REMARK  117  A    between atoms: _290  and  _291
REMARK  118  A    between atoms: _291  and  _292
REMARK  119  A    between atoms: _296  and  _298
REMARK  120  A    between atoms: _298  and  _299
REMARK  121  A    between atoms: _298  and  _301
REMARK  122  A    between atoms: _301  and  _302
REMARK  123  A    between atoms: _313  and  _314
REMARK  124  A    between atoms: _319  and  _321
REMARK  125  A    between atoms: _321  and  _322
REMARK  126  A    between atoms: _321  and  _324
REMARK  127  A    between atoms: _324  and  _325
REMARK  128  A    between atoms: _330  and  _332
REMARK  129  A    between atoms: _332  and  _333
REMARK  130  A    between atoms: _332  and  _335
REMARK  131  A    between atoms: _335  and  _336
REMARK  132  A    between atoms: _339  and  _341
REMARK  133  A    between atoms: _341  and  _342
REMARK  134  A    between atoms: _341  and  _344
REMARK  135  A    between atoms: _347  and  _349
REMARK  136  A    between atoms: _349  and  _350
REMARK  137  A    between atoms: _352  and  _354
REMARK  138  A    between atoms: _354  and  _355
REMARK  139  A    between atoms: _354  and  _357
REMARK  140  A    between atoms: _357  and  _358
REMARK  141  A    between atoms: _358  and  _359
REMARK  142  A    between atoms: _359  and  _360
REMARK  143  A    between atoms: _360  and  _361
REMARK  144  A    between atoms: _365  and  _367
REMARK  145  A    between atoms: _367  and  _368
REMARK  146  A    between atoms: _367  and  _370
REMARK  147  A    between atoms: _370  and  _371
REMARK  148  A    between atoms: _374  and  _376
REMARK  149  A    between atoms: _376  and  _377
REMARK  150  A    between atoms: _380  and  _382
REMARK  151  A    between atoms: _382  and  _383
REMARK  152  A    between atoms: _385  and  _387
REMARK  153  A    between atoms: _387  and  _388
REMARK  154  A    between atoms: _387  and  _390
REMARK  155  A    between atoms: _390  and  _391
REMARK  156  A    between atoms: _394  and  _396
REMARK  157  A    between atoms: _396  and  _397
REMARK  158  A    between atoms: _396  and  _399
REMARK  159  A    between atoms: _399  and  _400
REMARK  160  A    between atoms: _403  and  _405
REMARK  161  A    between atoms: _405  and  _406
REMARK  162  A    between atoms: _409  and  _411
REMARK  163  A    between atoms: _411  and  _412
REMARK  164  A    between atoms: _411  and  _414
REMARK  165  A    between atoms: _414  and  _415
REMARK  166  A    between atoms: _415  and  _416
REMARK  167  A    between atoms: _419  and  _421
REMARK  168  A    between atoms: _421  and  _422
REMARK  169  A    between atoms: _421  and  _424
REMARK  170  A    between atoms: _427  and  _429
REMARK  171  A    between atoms: _429  and  _430
REMARK  172  A    between atoms: _429  and  _432
REMARK  173  A    between atoms: _432  and  _433
REMARK  174  A    between atoms: _436  and  _438
REMARK  175  A    between atoms: _438  and  _439
REMARK  176  A    between atoms: _441  and  _443
REMARK  177  A    between atoms: _443  and  _444
REMARK  178  A    between atoms: _443  and  _446
REMARK  179  A    between atoms: _449  and  _451
REMARK  180  A    between atoms: _451  and  _452
REMARK  181  A    between atoms: _454  and  _456
REMARK  182  A    between atoms: _456  and  _457
REMARK  183  A    between atoms: _456  and  _459
REMARK  184  A    between atoms: _459  and  _460
REMARK  185  A    between atoms: _463  and  _465
REMARK  186  A    between atoms: _465  and  _466
REMARK  187  A    between atoms: _465  and  _468
REMARK  188  A    between atoms: _468  and  _469
REMARK  189  A    between atoms: _474  and  _476
REMARK  190  A    between atoms: _476  and  _477
REMARK  191  A    between atoms: _476  and  _479
REMARK  192  A    between atoms: _482  and  _484
REMARK  193  A    between atoms: _484  and  _485
REMARK  194  A    between atoms: _484  and  _487
REMARK  195  A    between atoms: _487  and  _488
REMARK  196  A    between atoms: _488  and  _489
REMARK  197  A    between atoms: _494  and  _496
REMARK  198  A    between atoms: _496  and  _497
REMARK  199  A    between atoms: _501  and  _502
REMARK  200  A    between atoms: _507  and  _509
REMARK  201  A    between atoms: _509  and  _510
REMARK  202  A    between atoms: _509  and  _512
REMARK  203  A    between atoms: _512  and  _513
REMARK  204  A    between atoms: _513  and  _514
REMARK  205  A    between atoms: _517  and  _519
REMARK  206  A    between atoms: _519  and  _520
REMARK  207  A    between atoms: _519  and  _522
REMARK  208  A    between atoms: _525  and  _527
REMARK  209  A    between atoms: _527  and  _528
REMARK  210  A    between atoms: _527  and  _530
REMARK  211  A    between atoms: _530  and  _531
REMARK  212  A    between atoms: _535  and  _536
REMARK  213  A    between atoms: _541  and  _543
REMARK  214  A    between atoms: _543  and  _544
REMARK  215  A    between atoms: _543  and  _546
REMARK  216  A    between atoms: _546  and  _547
REMARK  217  A    between atoms: _550  and  _552
REMARK  218  A    between atoms: _552  and  _553
REMARK  219  A    between atoms: _556  and  _558
REMARK  220  A    between atoms: _558  and  _559
REMARK  221  A    between atoms: _558  and  _561
REMARK  222  A    between atoms: _561  and  _562
REMARK  223  A    between atoms: _565  and  _567
REMARK  224  A    between atoms: _567  and  _568
REMARK  225  A    between atoms: _567  and  _570
REMARK  226  A    between atoms: _570  and  _571
REMARK  227  A    between atoms: _573  and  _575
REMARK  228  A    between atoms: _575  and  _576
REMARK  229  A    between atoms: _578  and  _580
REMARK  230  A    between atoms: _580  and  _581
REMARK  231  A    between atoms: _580  and  _583
REMARK  232  A    between atoms: _583  and  _584
REMARK  233  A    between atoms: _587  and  _589
REMARK  234  A    between atoms: _589  and  _590
REMARK  235  A    between atoms: _589  and  _592
REMARK                            x       y       z     vdW  Elec       q    Type
REMARK                         _______ _______ _______ _____ _____    ______ ____
ROOT
ATOM      1  O   HOH     1      -1.449   5.014  15.393  0.00  0.00    +0.000 OA
ENDROOT
TORSDOF 0
REMARK  Name = ../refined-set-2016/4xtv/4xtv_pocket.pdb
REMARK  235 active torsions:
REMARK  status: ('A' for Active; 'I' for Inactive)
REMARK    1  A    between atoms: _1  and  _3
REMARK    2  A    between atoms: _3  and  _4
REMARK    3  A    between atoms: _3  and  _6
REMARK    4  A    between atoms: _6  and  _7
REMARK    5  A    between atoms: _10  and  _12
REMARK    6  A    between atoms: _12  and  _13
REMARK    7  A    between atoms: _15  and  _17
REMARK    8  A    between atoms: _17  and  _18
REMARK    9  A    between atoms: _17  and  _20
REMARK   10  A    between atoms: _20  and  _21
REMARK   11  A    between atoms: _23  and  _25
REMARK   12  A    between atoms: _25  and  _26
REMARK   13  A    between atoms: _25  and  _28
REMARK   14  A    between atoms: _28  and  _29
REMARK   15  A    between atoms: _32  and  _34
REMARK   16  A    between atoms: _34  and  _35
REMARK   17  A    between atoms: _34  and  _37
REMARK   18  A    between atoms: _37  and  _38
REMARK   19  A    between atoms: _43  and  _45
REMARK   20  A    between atoms: _45  and  _46
REMARK   21  A    between atoms: _49  and  _51
REMARK   22  A    between atoms: _51  and  _52
REMARK   23  A    between atoms: _51  and  _54
REMARK   24  A    between atoms: _54  and  _55
REMARK   25  A    between atoms: _58  and  _60
REMARK   26  A    between atoms: _60  and  _61
REMARK   27  A    between atoms: _60  and  _63
REMARK   28  A    between atoms: _63  and  _64
REMARK   29  A    between atoms: _67  and  _69
REMARK   30  A    between atoms: _69  and  _70
REMARK   31  A    between atoms: _69  and  _72
REMARK   32  A    between atoms: _72  and  _73
REMARK   33  A    between atoms: _76  and  _78
REMARK   34  A    between atoms: _78  and  _79
REMARK   35  A    between atoms: _82  and  _84
REMARK   36  A    between atoms: _84  and  _85
REMARK   37  A    between atoms: _84  and  _87
REMARK   38  A    between atoms: _87  and  _88
REMARK   39  A    between atoms: _88  and  _89
REMARK   40  A    between atoms: _94  and  _96
REMARK   41  A    between atoms: _96  and  _97
REMARK   42  A    between atoms: _96  and  _99
REMARK   43  A    between atoms: _99  and  _100
REMARK   44  A    between atoms: _103  and  _105
REMARK   45  A    between atoms: _105  and  _106
REMARK   46  A    between atoms: _109  and  _111
REMARK   47  A    between atoms: _111  and  _112
REMARK   48  A    between atoms: _114  and  _116
REMARK   49  A    between atoms: _116  and  _117
REMARK   50  A    between atoms: _116  and  _119
REMARK   51  A    between atoms: _119  and  _120
REMARK   52  A    between atoms: _120  and  _121
REMARK   53  A    between atoms: _121  and  _122
REMARK   54  A    between atoms: _131  and  _133
REMARK   55  A    between atoms: _133  and  _134
REMARK   56  A    between atoms: _136  and  _138
REMARK   57  A    between atoms: _138  and  _139
REMARK   58  A    between atoms: _138  and  _141
REMARK   59  A    between atoms: _141  and  _142
REMARK   60  A    between atoms: _142  and  _143
REMARK   61  A    between atoms: _143  and  _144
REMARK   62  A    between atoms: _153  and  _155
REMARK   63  A    between atoms: _155  and  _156
REMARK   64  A    between atoms: _155  and  _158
REMARK   65  A    between atoms: _158  and  _159
REMARK   66  A    between atoms: _164  and  _166
REMARK   67  A    between atoms: _166  and  _167
REMARK   68  A    between atoms: _169  and  _171
REMARK   69  A    between atoms: _171  and  _172
REMARK   70  A    between atoms: _171  and  _174
REMARK   71  A    between atoms: _174  and  _175
REMARK   72  A    between atoms: _175  and  _176
REMARK   73  A    between atoms: _176  and  _177
REMARK   74  A    between atoms: _186  and  _188
REMARK   75  A    between atoms: _188  and  _189
REMARK   76  A    between atoms: _191  and  _193
REMARK   77  A    between atoms: _193  and  _194
REMARK   78  A    between atoms: _193  and  _196
REMARK   79  A    between atoms: _196  and  _197
REMARK   80  A    between atoms: _207  and  _209
REMARK   81  A    between atoms: _209  and  _210
REMARK   82  A    between atoms: _213  and  _215
REMARK   83  A    between atoms: _215  and  _216
REMARK   84  A    between atoms: _219  and  _221
REMARK   85  A    between atoms: _221  and  _222
REMARK   86  A    between atoms: _221  and  _224
REMARK   87  A    between atoms: _224  and  _225
REMARK   88  A    between atoms: _228  and  _230
REMARK   89  A    between atoms: _230  and  _231
REMARK   90  A    between atoms: _230  and  _233
REMARK   91  A    between atoms: _233  and  _234
REMARK   92  A    between atoms: _234  and  _235
REMARK   93  A    between atoms: _240  and  _242
REMARK   94  A    between atoms: _242  and  _243
REMARK   95  A    between atoms: _242  and  _245
REMARK   96  A    between atoms: _245  and  _246
REMARK   97  A    between atoms: _249  and  _251
REMARK   98  A    between atoms: _251  and  _252
REMARK   99  A    between atoms: _251  and  _254
REMARK  100  A    between atoms: _254  and  _255
REMARK  101  A    between atoms: _258  and  _260
REMARK  102  A    between atoms: _260  and  _261
REMARK  103  A    between atoms: _260  and  _263
REMARK  104  A    between atoms: _263  and  _264
REMARK  105  A    between atoms: _267  and  _269
REMARK  106  A    between atoms: _269  and  _270
REMARK  107  A    between atoms: _269  and  _272
REMARK  108  A    between atoms: _272  and  _273
REMARK  109  A    between atoms: _275  and  _277
REMARK  110  A    between atoms: _277  and  _278
REMARK  111  A    between atoms: _277  and  _280
REMARK  112  A    between atoms: _283  and  _285
REMARK  113  A    between atoms: _285  and  _286
REMARK  114  A    between atoms: _285  and  _288
REMARK  115  A    between atoms: _288  and  _289
REMARK  116  A    between atoms: _289  and  _290
REMARK  117  A    between atoms: _290  and  _291
REMARK  118  A    between atoms: _291  and  _292
REMARK  119  A    between atoms: _296  and  _298
REMARK  120  A    between atoms: _298  and  _299
REMARK  121  A    between atoms: _298  and  _301
REMARK  122  A    between atoms: _301  and  _302
REMARK  123  A    between atoms: _313  and  _314
REMARK  124  A    between atoms: _319  and  _321
REMARK  125  A    between atoms: _321  and  _322
REMARK  126  A    between atoms: _321  and  _324
REMARK  127  A    between atoms: _324  and  _325
REMARK  128  A    between atoms: _330  and  _332
REMARK  129  A    between atoms: _332  and  _333
REMARK  130  A    between atoms: _332  and  _335
REMARK  131  A    between atoms: _335  and  _336
REMARK  132  A    between atoms: _339  and  _341
REMARK  133  A    between atoms: _341  and  _342
REMARK  134  A    between atoms: _341  and  _344
REMARK  135  A    between atoms: _347  and  _349
REMARK  136  A    between atoms: _349  and  _350
REMARK  137  A    between atoms: _352  and  _354
REMARK  138  A    between atoms: _354  and  _355
REMARK  139  A    between atoms: _354  and  _357
REMARK  140  A    between atoms: _357  and  _358
REMARK  141  A    between atoms: _358  and  _359
REMARK  142  A    between atoms: _359  and  _360
REMARK  143  A    between atoms: _360  and  _361
REMARK  144  A    between atoms: _365  and  _367
REMARK  145  A    between atoms: _367  and  _368
REMARK  146  A    between atoms: _367  and  _370
REMARK  147  A    between atoms: _370  and  _371
REMARK  148  A    between atoms: _374  and  _376
REMARK  149  A    between atoms: _376  and  _377
REMARK  150  A    between atoms: _380  and  _382
REMARK  151  A    between atoms: _382  and  _383
REMARK  152  A    between atoms: _385  and  _387
REMARK  153  A    between atoms: _387  and  _388
REMARK  154  A    between atoms: _387  and  _390
REMARK  155  A    between atoms: _390  and  _391
REMARK  156  A    between atoms: _394  and  _396
REMARK  157  A    between atoms: _396  and  _397
REMARK  158  A    between atoms: _396  and  _399
REMARK  159  A    between atoms: _399  and  _400
REMARK  160  A    between atoms: _403  and  _405
REMARK  161  A    between atoms: _405  and  _406
REMARK  162  A    between atoms: _409  and  _411
REMARK  163  A    between atoms: _411  and  _412
REMARK  164  A    between atoms: _411  and  _414
REMARK  165  A    between atoms: _414  and  _415
REMARK  166  A    between atoms: _415  and  _416
REMARK  167  A    between atoms: _419  and  _421
REMARK  168  A    between atoms: _421  and  _422
REMARK  169  A    between atoms: _421  and  _424
REMARK  170  A    between atoms: _427  and  _429
REMARK  171  A    between atoms: _429  and  _430
REMARK  172  A    between atoms: _429  and  _432
REMARK  173  A    between atoms: _432  and  _433
REMARK  174  A    between atoms: _436  and  _438
REMARK  175  A    between atoms: _438  and  _439
REMARK  176  A    between atoms: _441  and  _443
REMARK  177  A    between atoms: _443  and  _444
REMARK  178  A    between atoms: _443  and  _446
REMARK  179  A    between atoms: _449  and  _451
REMARK  180  A    between atoms: _451  and  _452
REMARK  181  A    between atoms: _454  and  _456
REMARK  182  A    between atoms: _456  and  _457
REMARK  183  A    between atoms: _456  and  _459
REMARK  184  A    between atoms: _459  and  _460
REMARK  185  A    between atoms: _463  and  _465
REMARK  186  A    between atoms: _465  and  _466
REMARK  187  A    between atoms: _465  and  _468
REMARK  188  A    between atoms: _468  and  _469
REMARK  189  A    between atoms: _474  and  _476
REMARK  190  A    between atoms: _476  and  _477
REMARK  191  A    between atoms: _476  and  _479
REMARK  192  A    between atoms: _482  and  _484
REMARK  193  A    between atoms: _484  and  _485
REMARK  194  A    between atoms: _484  and  _487
REMARK  195  A    between atoms: _487  and  _488
REMARK  196  A    between atoms: _488  and  _489
REMARK  197  A    between atoms: _494  and  _496
REMARK  198  A    between atoms: _496  and  _497
REMARK  199  A    between atoms: _501  and  _502
REMARK  200  A    between atoms: _507  and  _509
REMARK  201  A    between atoms: _509  and  _510
REMARK  202  A    between atoms: _509  and  _512
REMARK  203  A    between atoms: _512  and  _513
REMARK  204  A    between atoms: _513  and  _514
REMARK  205  A    between atoms: _517  and  _519
REMARK  206  A    between atoms: _519  and  _520
REMARK  207  A    between atoms: _519  and  _522
REMARK  208  A    between atoms: _525  and  _527
REMARK  209  A    between atoms: _527  and  _528
REMARK  210  A    between atoms: _527  and  _530
REMARK  211  A    between atoms: _530  and  _531
REMARK  212  A    between atoms: _535  and  _536
REMARK  213  A    between atoms: _541  and  _543
REMARK  214  A    between atoms: _543  and  _544
REMARK  215  A    between atoms: _543  and  _546
REMARK  216  A    between atoms: _546  and  _547
REMARK  217  A    between atoms: _550  and  _552
REMARK  218  A    between atoms: _552  and  _553
REMARK  219  A    between atoms: _556  and  _558
REMARK  220  A    between atoms: _558  and  _559
REMARK  221  A    between atoms: _558  and  _561
REMARK  222  A    between atoms: _561  and  _562
REMARK  223  A    between atoms: _565  and  _567
REMARK  224  A    between atoms: _567  and  _568
REMARK  225  A    between atoms: _567  and  _570
REMARK  226  A    between atoms: _570  and  _571
REMARK  227  A    between atoms: _573  and  _575
REMARK  228  A    between atoms: _575  and  _576
REMARK  229  A    between atoms: _578  and  _580
REMARK  230  A    between atoms: _580  and  _581
REMARK  231  A    between atoms: _580  and  _583
REMARK  232  A    between atoms: _583  and  _584
REMARK  233  A    between atoms: _587  and  _589
REMARK  234  A    between atoms: _589  and  _590
REMARK  235  A    between atoms: _589  and  _592
REMARK                            x       y       z     vdW  Elec       q    Type
REMARK                         _______ _______ _______ _____ _____    ______ ____
ROOT
ATOM      1  O   HOH     1       5.632  -5.022  12.062  0.00  0.00    +0.000 OA
ENDROOT
TORSDOF 0
REMARK  Name = ../refined-set-2016/4xtv/4xtv_pocket.pdb
REMARK  235 active torsions:
REMARK  status: ('A' for Active; 'I' for Inactive)
REMARK    1  A    between atoms: _1  and  _3
REMARK    2  A    between atoms: _3  and  _4
REMARK    3  A    between atoms: _3  and  _6
REMARK    4  A    between atoms: _6  and  _7
REMARK    5  A    between atoms: _10  and  _12
REMARK    6  A    between atoms: _12  and  _13
REMARK    7  A    between atoms: _15  and  _17
REMARK    8  A    between atoms: _17  and  _18
REMARK    9  A    between atoms: _17  and  _20
REMARK   10  A    between atoms: _20  and  _21
REMARK   11  A    between atoms: _23  and  _25
REMARK   12  A    between atoms: _25  and  _26
REMARK   13  A    between atoms: _25  and  _28
REMARK   14  A    between atoms: _28  and  _29
REMARK   15  A    between atoms: _32  and  _34
REMARK   16  A    between atoms: _34  and  _35
REMARK   17  A    between atoms: _34  and  _37
REMARK   18  A    between atoms: _37  and  _38
REMARK   19  A    between atoms: _43  and  _45
REMARK   20  A    between atoms: _45  and  _46
REMARK   21  A    between atoms: _49  and  _51
REMARK   22  A    between atoms: _51  and  _52
REMARK   23  A    between atoms: _51  and  _54
REMARK   24  A    between atoms: _54  and  _55
REMARK   25  A    between atoms: _58  and  _60
REMARK   26  A    between atoms: _60  and  _61
REMARK   27  A    between atoms: _60  and  _63
REMARK   28  A    between atoms: _63  and  _64
REMARK   29  A    between atoms: _67  and  _69
REMARK   30  A    between atoms: _69  and  _70
REMARK   31  A    between atoms: _69  and  _72
REMARK   32  A    between atoms: _72  and  _73
REMARK   33  A    between atoms: _76  and  _78
REMARK   34  A    between atoms: _78  and  _79
REMARK   35  A    between atoms: _82  and  _84
REMARK   36  A    between atoms: _84  and  _85
REMARK   37  A    between atoms: _84  and  _87
REMARK   38  A    between atoms: _87  and  _88
REMARK   39  A    between atoms: _88  and  _89
REMARK   40  A    between atoms: _94  and  _96
REMARK   41  A    between atoms: _96  and  _97
REMARK   42  A    between atoms: _96  and  _99
REMARK   43  A    between atoms: _99  and  _100
REMARK   44  A    between atoms: _103  and  _105
REMARK   45  A    between atoms: _105  and  _106
REMARK   46  A    between atoms: _109  and  _111
REMARK   47  A    between atoms: _111  and  _112
REMARK   48  A    between atoms: _114  and  _116
REMARK   49  A    between atoms: _116  and  _117
REMARK   50  A    between atoms: _116  and  _119
REMARK   51  A    between atoms: _119  and  _120
REMARK   52  A    between atoms: _120  and  _121
REMARK   53  A    between atoms: _121  and  _122
REMARK   54  A    between atoms: _131  and  _133
REMARK   55  A    between atoms: _133  and  _134
REMARK   56  A    between atoms: _136  and  _138
REMARK   57  A    between atoms: _138  and  _139
REMARK   58  A    between atoms: _138  and  _141
REMARK   59  A    between atoms: _141  and  _142
REMARK   60  A    between atoms: _142  and  _143
REMARK   61  A    between atoms: _143  and  _144
REMARK   62  A    between atoms: _153  and  _155
REMARK   63  A    between atoms: _155  and  _156
REMARK   64  A    between atoms: _155  and  _158
REMARK   65  A    between atoms: _158  and  _159
REMARK   66  A    between atoms: _164  and  _166
REMARK   67  A    between atoms: _166  and  _167
REMARK   68  A    between atoms: _169  and  _171
REMARK   69  A    between atoms: _171  and  _172
REMARK   70  A    between atoms: _171  and  _174
REMARK   71  A    between atoms: _174  and  _175
REMARK   72  A    between atoms: _175  and  _176
REMARK   73  A    between atoms: _176  and  _177
REMARK   74  A    between atoms: _186  and  _188
REMARK   75  A    between atoms: _188  and  _189
REMARK   76  A    between atoms: _191  and  _193
REMARK   77  A    between atoms: _193  and  _194
REMARK   78  A    between atoms: _193  and  _196
REMARK   79  A    between atoms: _196  and  _197
REMARK   80  A    between atoms: _207  and  _209
REMARK   81  A    between atoms: _209  and  _210
REMARK   82  A    between atoms: _213  and  _215
REMARK   83  A    between atoms: _215  and  _216
REMARK   84  A    between atoms: _219  and  _221
REMARK   85  A    between atoms: _221  and  _222
REMARK   86  A    between atoms: _221  and  _224
REMARK   87  A    between atoms: _224  and  _225
REMARK   88  A    between atoms: _228  and  _230
REMARK   89  A    between atoms: _230  and  _231
REMARK   90  A    between atoms: _230  and  _233
REMARK   91  A    between atoms: _233  and  _234
REMARK   92  A    between atoms: _234  and  _235
REMARK   93  A    between atoms: _240  and  _242
REMARK   94  A    between atoms: _242  and  _243
REMARK   95  A    between atoms: _242  and  _245
REMARK   96  A    between atoms: _245  and  _246
REMARK   97  A    between atoms: _249  and  _251
REMARK   98  A    between atoms: _251  and  _252
REMARK   99  A    between atoms: _251  and  _254
REMARK  100  A    between atoms: _254  and  _255
REMARK  101  A    between atoms: _258  and  _260
REMARK  102  A    between atoms: _260  and  _261
REMARK  103  A    between atoms: _260  and  _263
REMARK  104  A    between atoms: _263  and  _264
REMARK  105  A    between atoms: _267  and  _269
REMARK  106  A    between atoms: _269  and  _270
REMARK  107  A    between atoms: _269  and  _272
REMARK  108  A    between atoms: _272  and  _273
REMARK  109  A    between atoms: _275  and  _277
REMARK  110  A    between atoms: _277  and  _278
REMARK  111  A    between atoms: _277  and  _280
REMARK  112  A    between atoms: _283  and  _285
REMARK  113  A    between atoms: _285  and  _286
REMARK  114  A    between atoms: _285  and  _288
REMARK  115  A    between atoms: _288  and  _289
REMARK  116  A    between atoms: _289  and  _290
REMARK  117  A    between atoms: _290  and  _291
REMARK  118  A    between atoms: _291  and  _292
REMARK  119  A    between atoms: _296  and  _298
REMARK  120  A    between atoms: _298  and  _299
REMARK  121  A    between atoms: _298  and  _301
REMARK  122  A    between atoms: _301  and  _302
REMARK  123  A    between atoms: _313  and  _314
REMARK  124  A    between atoms: _319  and  _321
REMARK  125  A    between atoms: _321  and  _322
REMARK  126  A    between atoms: _321  and  _324
REMARK  127  A    between atoms: _324  and  _325
REMARK  128  A    between atoms: _330  and  _332
REMARK  129  A    between atoms: _332  and  _333
REMARK  130  A    between atoms: _332  and  _335
REMARK  131  A    between atoms: _335  and  _336
REMARK  132  A    between atoms: _339  and  _341
REMARK  133  A    between atoms: _341  and  _342
REMARK  134  A    between atoms: _341  and  _344
REMARK  135  A    between atoms: _347  and  _349
REMARK  136  A    between atoms: _349  and  _350
REMARK  137  A    between atoms: _352  and  _354
REMARK  138  A    between atoms: _354  and  _355
REMARK  139  A    between atoms: _354  and  _357
REMARK  140  A    between atoms: _357  and  _358
REMARK  141  A    between atoms: _358  and  _359
REMARK  142  A    between atoms: _359  and  _360
REMARK  143  A    between atoms: _360  and  _361
REMARK  144  A    between atoms: _365  and  _367
REMARK  145  A    between atoms: _367  and  _368
REMARK  146  A    between atoms: _367  and  _370
REMARK  147  A    between atoms: _370  and  _371
REMARK  148  A    between atoms: _374  and  _376
REMARK  149  A    between atoms: _376  and  _377
REMARK  150  A    between atoms: _380  and  _382
REMARK  151  A    between atoms: _382  and  _383
REMARK  152  A    between atoms: _385  and  _387
REMARK  153  A    between atoms: _387  and  _388
REMARK  154  A    between atoms: _387  and  _390
REMARK  155  A    between atoms: _390  and  _391
REMARK  156  A    between atoms: _394  and  _396
REMARK  157  A    between atoms: _396  and  _397
REMARK  158  A    between atoms: _396  and  _399
REMARK  159  A    between atoms: _399  and  _400
REMARK  160  A    between atoms: _403  and  _405
REMARK  161  A    between atoms: _405  and  _406
REMARK  162  A    between atoms: _409  and  _411
REMARK  163  A    between atoms: _411  and  _412
REMARK  164  A    between atoms: _411  and  _414
REMARK  165  A    between atoms: _414  and  _415
REMARK  166  A    between atoms: _415  and  _416
REMARK  167  A    between atoms: _419  and  _421
REMARK  168  A    between atoms: _421  and  _422
REMARK  169  A    between atoms: _421  and  _424
REMARK  170  A    between atoms: _427  and  _429
REMARK  171  A    between atoms: _429  and  _430
REMARK  172  A    between atoms: _429  and  _432
REMARK  173  A    between atoms: _432  and  _433
REMARK  174  A    between atoms: _436  and  _438
REMARK  175  A    between atoms: _438  and  _439
REMARK  176  A    between atoms: _441  and  _443
REMARK  177  A    between atoms: _443  and  _444
REMARK  178  A    between atoms: _443  and  _446
REMARK  179  A    between atoms: _449  and  _451
REMARK  180  A    between atoms: _451  and  _452
REMARK  181  A    between atoms: _454  and  _456
REMARK  182  A    between atoms: _456  and  _457
REMARK  183  A    between atoms: _456  and  _459
REMARK  184  A    between atoms: _459  and  _460
REMARK  185  A    between atoms: _463  and  _465
REMARK  186  A    between atoms: _465  and  _466
REMARK  187  A    between atoms: _465  and  _468
REMARK  188  A    between atoms: _468  and  _469
REMARK  189  A    between atoms: _474  and  _476
REMARK  190  A    between atoms: _476  and  _477
REMARK  191  A    between atoms: _476  and  _479
REMARK  192  A    between atoms: _482  and  _484
REMARK  193  A    between atoms: _484  and  _485
REMARK  194  A    between atoms: _484  and  _487
REMARK  195  A    between atoms: _487  and  _488
REMARK  196  A    between atoms: _488  and  _489
REMARK  197  A    between atoms: _494  and  _496
REMARK  198  A    between atoms: _496  and  _497
REMARK  199  A    between atoms: _501  and  _502
REMARK  200  A    between atoms: _507  and  _509
REMARK  201  A    between atoms: _509  and  _510
REMARK  202  A    between atoms: _509  and  _512
REMARK  203  A    between atoms: _512  and  _513
REMARK  204  A    between atoms: _513  and  _514
REMARK  205  A    between atoms: _517  and  _519
REMARK  206  A    between atoms: _519  and  _520
REMARK  207  A    between atoms: _519  and  _522
REMARK  208  A    between atoms: _525  and  _527
REMARK  209  A    between atoms: _527  and  _528
REMARK  210  A    between atoms: _527  and  _530
REMARK  211  A    between atoms: _530  and  _531
REMARK  212  A    between atoms: _535  and  _536
REMARK  213  A    between atoms: _541  and  _543
REMARK  214  A    between atoms: _543  and  _544
REMARK  215  A    between atoms: _543  and  _546
REMARK  216  A    between atoms: _546  and  _547
REMARK  217  A    between atoms: _550  and  _552
REMARK  218  A    between atoms: _552  and  _553
REMARK  219  A    between atoms: _556  and  _558
REMARK  220  A    between atoms: _558  and  _559
REMARK  221  A    between atoms: _558  and  _561
REMARK  222  A    between atoms: _561  and  _562
REMARK  223  A    between atoms: _565  and  _567
REMARK  224  A    between atoms: _567  and  _568
REMARK  225  A    between atoms: _567  and  _570
REMARK  226  A    between atoms: _570  and  _571
REMARK  227  A    between atoms: _573  and  _575
REMARK  228  A    between atoms: _575  and  _576
REMARK  229  A    between atoms: _578  and  _580
REMARK  230  A    between atoms: _580  and  _581
REMARK  231  A    between atoms: _580  and  _583
REMARK  232  A    between atoms: _583  and  _584
REMARK  233  A    between atoms: _587  and  _589
REMARK  234  A    between atoms: _589  and  _590
REMARK  235  A    between atoms: _589  and  _592
REMARK                            x       y       z     vdW  Elec       q    Type
REMARK                         _______ _______ _______ _____ _____    ______ ____
ROOT
ATOM      1  O   HOH     1      -5.707 -12.529   3.635  0.00  0.00    +0.000 OA
ENDROOT
TORSDOF 0
REMARK  Name = ../refined-set-2016/4xtv/4xtv_pocket.pdb
REMARK  235 active torsions:
REMARK  status: ('A' for Active; 'I' for Inactive)
REMARK    1  A    between atoms: _1  and  _3
REMARK    2  A    between atoms: _3  and  _4
REMARK    3  A    between atoms: _3  and  _6
REMARK    4  A    between atoms: _6  and  _7
REMARK    5  A    between atoms: _10  and  _12
REMARK    6  A    between atoms: _12  and  _13
REMARK    7  A    between atoms: _15  and  _17
REMARK    8  A    between atoms: _17  and  _18
REMARK    9  A    between atoms: _17  and  _20
REMARK   10  A    between atoms: _20  and  _21
REMARK   11  A    between atoms: _23  and  _25
REMARK   12  A    between atoms: _25  and  _26
REMARK   13  A    between atoms: _25  and  _28
REMARK   14  A    between atoms: _28  and  _29
REMARK   15  A    between atoms: _32  and  _34
REMARK   16  A    between atoms: _34  and  _35
REMARK   17  A    between atoms: _34  and  _37
REMARK   18  A    between atoms: _37  and  _38
REMARK   19  A    between atoms: _43  and  _45
REMARK   20  A    between atoms: _45  and  _46
REMARK   21  A    between atoms: _49  and  _51
REMARK   22  A    between atoms: _51  and  _52
REMARK   23  A    between atoms: _51  and  _54
REMARK   24  A    between atoms: _54  and  _55
REMARK   25  A    between atoms: _58  and  _60
REMARK   26  A    between atoms: _60  and  _61
REMARK   27  A    between atoms: _60  and  _63
REMARK   28  A    between atoms: _63  and  _64
REMARK   29  A    between atoms: _67  and  _69
REMARK   30  A    between atoms: _69  and  _70
REMARK   31  A    between atoms: _69  and  _72
REMARK   32  A    between atoms: _72  and  _73
REMARK   33  A    between atoms: _76  and  _78
REMARK   34  A    between atoms: _78  and  _79
REMARK   35  A    between atoms: _82  and  _84
REMARK   36  A    between atoms: _84  and  _85
REMARK   37  A    between atoms: _84  and  _87
REMARK   38  A    between atoms: _87  and  _88
REMARK   39  A    between atoms: _88  and  _89
REMARK   40  A    between atoms: _94  and  _96
REMARK   41  A    between atoms: _96  and  _97
REMARK   42  A    between atoms: _96  and  _99
REMARK   43  A    between atoms: _99  and  _100
REMARK   44  A    between atoms: _103  and  _105
REMARK   45  A    between atoms: _105  and  _106
REMARK   46  A    between atoms: _109  and  _111
REMARK   47  A    between atoms: _111  and  _112
REMARK   48  A    between atoms: _114  and  _116
REMARK   49  A    between atoms: _116  and  _117
REMARK   50  A    between atoms: _116  and  _119
REMARK   51  A    between atoms: _119  and  _120
REMARK   52  A    between atoms: _120  and  _121
REMARK   53  A    between atoms: _121  and  _122
REMARK   54  A    between atoms: _131  and  _133
REMARK   55  A    between atoms: _133  and  _134
REMARK   56  A    between atoms: _136  and  _138
REMARK   57  A    between atoms: _138  and  _139
REMARK   58  A    between atoms: _138  and  _141
REMARK   59  A    between atoms: _141  and  _142
REMARK   60  A    between atoms: _142  and  _143
REMARK   61  A    between atoms: _143  and  _144
REMARK   62  A    between atoms: _153  and  _155
REMARK   63  A    between atoms: _155  and  _156
REMARK   64  A    between atoms: _155  and  _158
REMARK   65  A    between atoms: _158  and  _159
REMARK   66  A    between atoms: _164  and  _166
REMARK   67  A    between atoms: _166  and  _167
REMARK   68  A    between atoms: _169  and  _171
REMARK   69  A    between atoms: _171  and  _172
REMARK   70  A    between atoms: _171  and  _174
REMARK   71  A    between atoms: _174  and  _175
REMARK   72  A    between atoms: _175  and  _176
REMARK   73  A    between atoms: _176  and  _177
REMARK   74  A    between atoms: _186  and  _188
REMARK   75  A    between atoms: _188  and  _189
REMARK   76  A    between atoms: _191  and  _193
REMARK   77  A    between atoms: _193  and  _194
REMARK   78  A    between atoms: _193  and  _196
REMARK   79  A    between atoms: _196  and  _197
REMARK   80  A    between atoms: _207  and  _209
REMARK   81  A    between atoms: _209  and  _210
REMARK   82  A    between atoms: _213  and  _215
REMARK   83  A    between atoms: _215  and  _216
REMARK   84  A    between atoms: _219  and  _221
REMARK   85  A    between atoms: _221  and  _222
REMARK   86  A    between atoms: _221  and  _224
REMARK   87  A    between atoms: _224  and  _225
REMARK   88  A    between atoms: _228  and  _230
REMARK   89  A    between atoms: _230  and  _231
REMARK   90  A    between atoms: _230  and  _233
REMARK   91  A    between atoms: _233  and  _234
REMARK   92  A    between atoms: _234  and  _235
REMARK   93  A    between atoms: _240  and  _242
REMARK   94  A    between atoms: _242  and  _243
REMARK   95  A    between atoms: _242  and  _245
REMARK   96  A    between atoms: _245  and  _246
REMARK   97  A    between atoms: _249  and  _251
REMARK   98  A    between atoms: _251  and  _252
REMARK   99  A    between atoms: _251  and  _254
REMARK  100  A    between atoms: _254  and  _255
REMARK  101  A    between atoms: _258  and  _260
REMARK  102  A    between atoms: _260  and  _261
REMARK  103  A    between atoms: _260  and  _263
REMARK  104  A    between atoms: _263  and  _264
REMARK  105  A    between atoms: _267  and  _269
REMARK  106  A    between atoms: _269  and  _270
REMARK  107  A    between atoms: _269  and  _272
REMARK  108  A    between atoms: _272  and  _273
REMARK  109  A    between atoms: _275  and  _277
REMARK  110  A    between atoms: _277  and  _278
REMARK  111  A    between atoms: _277  and  _280
REMARK  112  A    between atoms: _283  and  _285
REMARK  113  A    between atoms: _285  and  _286
REMARK  114  A    between atoms: _285  and  _288
REMARK  115  A    between atoms: _288  and  _289
REMARK  116  A    between atoms: _289  and  _290
REMARK  117  A    between atoms: _290  and  _291
REMARK  118  A    between atoms: _291  and  _292
REMARK  119  A    between atoms: _296  and  _298
REMARK  120  A    between atoms: _298  and  _299
REMARK  121  A    between atoms: _298  and  _301
REMARK  122  A    between atoms: _301  and  _302
REMARK  123  A    between atoms: _313  and  _314
REMARK  124  A    between atoms: _319  and  _321
REMARK  125  A    between atoms: _321  and  _322
REMARK  126  A    between atoms: _321  and  _324
REMARK  127  A    between atoms: _324  and  _325
REMARK  128  A    between atoms: _330  and  _332
REMARK  129  A    between atoms: _332  and  _333
REMARK  130  A    between atoms: _332  and  _335
REMARK  131  A    between atoms: _335  and  _336
REMARK  132  A    between atoms: _339  and  _341
REMARK  133  A    between atoms: _341  and  _342
REMARK  134  A    between atoms: _341  and  _344
REMARK  135  A    between atoms: _347  and  _349
REMARK  136  A    between atoms: _349  and  _350
REMARK  137  A    between atoms: _352  and  _354
REMARK  138  A    between atoms: _354  and  _355
REMARK  139  A    between atoms: _354  and  _357
REMARK  140  A    between atoms: _357  and  _358
REMARK  141  A    between atoms: _358  and  _359
REMARK  142  A    between atoms: _359  and  _360
REMARK  143  A    between atoms: _360  and  _361
REMARK  144  A    between atoms: _365  and  _367
REMARK  145  A    between atoms: _367  and  _368
REMARK  146  A    between atoms: _367  and  _370
REMARK  147  A    between atoms: _370  and  _371
REMARK  148  A    between atoms: _374  and  _376
REMARK  149  A    between atoms: _376  and  _377
REMARK  150  A    between atoms: _380  and  _382
REMARK  151  A    between atoms: _382  and  _383
REMARK  152  A    between atoms: _385  and  _387
REMARK  153  A    between atoms: _387  and  _388
REMARK  154  A    between atoms: _387  and  _390
REMARK  155  A    between atoms: _390  and  _391
REMARK  156  A    between atoms: _394  and  _396
REMARK  157  A    between atoms: _396  and  _397
REMARK  158  A    between atoms: _396  and  _399
REMARK  159  A    between atoms: _399  and  _400
REMARK  160  A    between atoms: _403  and  _405
REMARK  161  A    between atoms: _405  and  _406
REMARK  162  A    between atoms: _409  and  _411
REMARK  163  A    between atoms: _411  and  _412
REMARK  164  A    between atoms: _411  and  _414
REMARK  165  A    between atoms: _414  and  _415
REMARK  166  A    between atoms: _415  and  _416
REMARK  167  A    between atoms: _419  and  _421
REMARK  168  A    between atoms: _421  and  _422
REMARK  169  A    between atoms: _421  and  _424
REMARK  170  A    between atoms: _427  and  _429
REMARK  171  A    between atoms: _429  and  _430
REMARK  172  A    between atoms: _429  and  _432
REMARK  173  A    between atoms: _432  and  _433
REMARK  174  A    between atoms: _436  and  _438
REMARK  175  A    between atoms: _438  and  _439
REMARK  176  A    between atoms: _441  and  _443
REMARK  177  A    between atoms: _443  and  _444
REMARK  178  A    between atoms: _443  and  _446
REMARK  179  A    between atoms: _449  and  _451
REMARK  180  A    between atoms: _451  and  _452
REMARK  181  A    between atoms: _454  and  _456
REMARK  182  A    between atoms: _456  and  _457
REMARK  183  A    between atoms: _456  and  _459
REMARK  184  A    between atoms: _459  and  _460
REMARK  185  A    between atoms: _463  and  _465
REMARK  186  A    between atoms: _465  and  _466
REMARK  187  A    between atoms: _465  and  _468
REMARK  188  A    between atoms: _468  and  _469
REMARK  189  A    between atoms: _474  and  _476
REMARK  190  A    between atoms: _476  and  _477
REMARK  191  A    between atoms: _476  and  _479
REMARK  192  A    between atoms: _482  and  _484
REMARK  193  A    between atoms: _484  and  _485
REMARK  194  A    between atoms: _484  and  _487
REMARK  195  A    between atoms: _487  and  _488
REMARK  196  A    between atoms: _488  and  _489
REMARK  197  A    between atoms: _494  and  _496
REMARK  198  A    between atoms: _496  and  _497
REMARK  199  A    between atoms: _501  and  _502
REMARK  200  A    between atoms: _507  and  _509
REMARK  201  A    between atoms: _509  and  _510
REMARK  202  A    between atoms: _509  and  _512
REMARK  203  A    between atoms: _512  and  _513
REMARK  204  A    between atoms: _513  and  _514
REMARK  205  A    between atoms: _517  and  _519
REMARK  206  A    between atoms: _519  and  _520
REMARK  207  A    between atoms: _519  and  _522
REMARK  208  A    between atoms: _525  and  _527
REMARK  209  A    between atoms: _527  and  _528
REMARK  210  A    between atoms: _527  and  _530
REMARK  211  A    between atoms: _530  and  _531
REMARK  212  A    between atoms: _535  and  _536
REMARK  213  A    between atoms: _541  and  _543
REMARK  214  A    between atoms: _543  and  _544
REMARK  215  A    between atoms: _543  and  _546
REMARK  216  A    between atoms: _546  and  _547
REMARK  217  A    between atoms: _550  and  _552
REMARK  218  A    between atoms: _552  and  _553
REMARK  219  A    between atoms: _556  and  _558
REMARK  220  A    between atoms: _558  and  _559
REMARK  221  A    between atoms: _558  and  _561
REMARK  222  A    between atoms: _561  and  _562
REMARK  223  A    between atoms: _565  and  _567
REMARK  224  A    between atoms: _567  and  _568
REMARK  225  A    between atoms: _567  and  _570
REMARK  226  A    between atoms: _570  and  _571
REMARK  227  A    between atoms: _573  and  _575
REMARK  228  A    between atoms: _575  and  _576
REMARK  229  A    between atoms: _578  and  _580
REMARK  230  A    between atoms: _580  and  _581
REMARK  231  A    between atoms: _580  and  _583
REMARK  232  A    between atoms: _583  and  _584
REMARK  233  A    between atoms: _587  and  _589
REMARK  234  A    between atoms: _589  and  _590
REMARK  235  A    between atoms: _589  and  _592
REMARK                            x       y       z     vdW  Elec       q    Type
REMARK                         _______ _______ _______ _____ _____    ______ ____
ROOT
ATOM      1  O   HOH     1      -6.676  -3.027   2.589  0.00  0.00    +0.000 OA
ENDROOT
TORSDOF 0
REMARK  Name = ../refined-set-2016/4xtv/4xtv_pocket.pdb
REMARK  235 active torsions:
REMARK  status: ('A' for Active; 'I' for Inactive)
REMARK    1  A    between atoms: _1  and  _3
REMARK    2  A    between atoms: _3  and  _4
REMARK    3  A    between atoms: _3  and  _6
REMARK    4  A    between atoms: _6  and  _7
REMARK    5  A    between atoms: _10  and  _12
REMARK    6  A    between atoms: _12  and  _13
REMARK    7  A    between atoms: _15  and  _17
REMARK    8  A    between atoms: _17  and  _18
REMARK    9  A    between atoms: _17  and  _20
REMARK   10  A    between atoms: _20  and  _21
REMARK   11  A    between atoms: _23  and  _25
REMARK   12  A    between atoms: _25  and  _26
REMARK   13  A    between atoms: _25  and  _28
REMARK   14  A    between atoms: _28  and  _29
REMARK   15  A    between atoms: _32  and  _34
REMARK   16  A    between atoms: _34  and  _35
REMARK   17  A    between atoms: _34  and  _37
REMARK   18  A    between atoms: _37  and  _38
REMARK   19  A    between atoms: _43  and  _45
REMARK   20  A    between atoms: _45  and  _46
REMARK   21  A    between atoms: _49  and  _51
REMARK   22  A    between atoms: _51  and  _52
REMARK   23  A    between atoms: _51  and  _54
REMARK   24  A    between atoms: _54  and  _55
REMARK   25  A    between atoms: _58  and  _60
REMARK   26  A    between atoms: _60  and  _61
REMARK   27  A    between atoms: _60  and  _63
REMARK   28  A    between atoms: _63  and  _64
REMARK   29  A    between atoms: _67  and  _69
REMARK   30  A    between atoms: _69  and  _70
REMARK   31  A    between atoms: _69  and  _72
REMARK   32  A    between atoms: _72  and  _73
REMARK   33  A    between atoms: _76  and  _78
REMARK   34  A    between atoms: _78  and  _79
REMARK   35  A    between atoms: _82  and  _84
REMARK   36  A    between atoms: _84  and  _85
REMARK   37  A    between atoms: _84  and  _87
REMARK   38  A    between atoms: _87  and  _88
REMARK   39  A    between atoms: _88  and  _89
REMARK   40  A    between atoms: _94  and  _96
REMARK   41  A    between atoms: _96  and  _97
REMARK   42  A    between atoms: _96  and  _99
REMARK   43  A    between atoms: _99  and  _100
REMARK   44  A    between atoms: _103  and  _105
REMARK   45  A    between atoms: _105  and  _106
REMARK   46  A    between atoms: _109  and  _111
REMARK   47  A    between atoms: _111  and  _112
REMARK   48  A    between atoms: _114  and  _116
REMARK   49  A    between atoms: _116  and  _117
REMARK   50  A    between atoms: _116  and  _119
REMARK   51  A    between atoms: _119  and  _120
REMARK   52  A    between atoms: _120  and  _121
REMARK   53  A    between atoms: _121  and  _122
REMARK   54  A    between atoms: _131  and  _133
REMARK   55  A    between atoms: _133  and  _134
REMARK   56  A    between atoms: _136  and  _138
REMARK   57  A    between atoms: _138  and  _139
REMARK   58  A    between atoms: _138  and  _141
REMARK   59  A    between atoms: _141  and  _142
REMARK   60  A    between atoms: _142  and  _143
REMARK   61  A    between atoms: _143  and  _144
REMARK   62  A    between atoms: _153  and  _155
REMARK   63  A    between atoms: _155  and  _156
REMARK   64  A    between atoms: _155  and  _158
REMARK   65  A    between atoms: _158  and  _159
REMARK   66  A    between atoms: _164  and  _166
REMARK   67  A    between atoms: _166  and  _167
REMARK   68  A    between atoms: _169  and  _171
REMARK   69  A    between atoms: _171  and  _172
REMARK   70  A    between atoms: _171  and  _174
REMARK   71  A    between atoms: _174  and  _175
REMARK   72  A    between atoms: _175  and  _176
REMARK   73  A    between atoms: _176  and  _177
REMARK   74  A    between atoms: _186  and  _188
REMARK   75  A    between atoms: _188  and  _189
REMARK   76  A    between atoms: _191  and  _193
REMARK   77  A    between atoms: _193  and  _194
REMARK   78  A    between atoms: _193  and  _196
REMARK   79  A    between atoms: _196  and  _197
REMARK   80  A    between atoms: _207  and  _209
REMARK   81  A    between atoms: _209  and  _210
REMARK   82  A    between atoms: _213  and  _215
REMARK   83  A    between atoms: _215  and  _216
REMARK   84  A    between atoms: _219  and  _221
REMARK   85  A    between atoms: _221  and  _222
REMARK   86  A    between atoms: _221  and  _224
REMARK   87  A    between atoms: _224  and  _225
REMARK   88  A    between atoms: _228  and  _230
REMARK   89  A    between atoms: _230  and  _231
REMARK   90  A    between atoms: _230  and  _233
REMARK   91  A    between atoms: _233  and  _234
REMARK   92  A    between atoms: _234  and  _235
REMARK   93  A    between atoms: _240  and  _242
REMARK   94  A    between atoms: _242  and  _243
REMARK   95  A    between atoms: _242  and  _245
REMARK   96  A    between atoms: _245  and  _246
REMARK   97  A    between atoms: _249  and  _251
REMARK   98  A    between atoms: _251  and  _252
REMARK   99  A    between atoms: _251  and  _254
REMARK  100  A    between atoms: _254  and  _255
REMARK  101  A    between atoms: _258  and  _260
REMARK  102  A    between atoms: _260  and  _261
REMARK  103  A    between atoms: _260  and  _263
REMARK  104  A    between atoms: _263  and  _264
REMARK  105  A    between atoms: _267  and  _269
REMARK  106  A    between atoms: _269  and  _270
REMARK  107  A    between atoms: _269  and  _272
REMARK  108  A    between atoms: _272  and  _273
REMARK  109  A    between atoms: _275  and  _277
REMARK  110  A    between atoms: _277  and  _278
REMARK  111  A    between atoms: _277  and  _280
REMARK  112  A    between atoms: _283  and  _285
REMARK  113  A    between atoms: _285  and  _286
REMARK  114  A    between atoms: _285  and  _288
REMARK  115  A    between atoms: _288  and  _289
REMARK  116  A    between atoms: _289  and  _290
REMARK  117  A    between atoms: _290  and  _291
REMARK  118  A    between atoms: _291  and  _292
REMARK  119  A    between atoms: _296  and  _298
REMARK  120  A    between atoms: _298  and  _299
REMARK  121  A    between atoms: _298  and  _301
REMARK  122  A    between atoms: _301  and  _302
REMARK  123  A    between atoms: _313  and  _314
REMARK  124  A    between atoms: _319  and  _321
REMARK  125  A    between atoms: _321  and  _322
REMARK  126  A    between atoms: _321  and  _324
REMARK  127  A    between atoms: _324  and  _325
REMARK  128  A    between atoms: _330  and  _332
REMARK  129  A    between atoms: _332  and  _333
REMARK  130  A    between atoms: _332  and  _335
REMARK  131  A    between atoms: _335  and  _336
REMARK  132  A    between atoms: _339  and  _341
REMARK  133  A    between atoms: _341  and  _342
REMARK  134  A    between atoms: _341  and  _344
REMARK  135  A    between atoms: _347  and  _349
REMARK  136  A    between atoms: _349  and  _350
REMARK  137  A    between atoms: _352  and  _354
REMARK  138  A    between atoms: _354  and  _355
REMARK  139  A    between atoms: _354  and  _357
REMARK  140  A    between atoms: _357  and  _358
REMARK  141  A    between atoms: _358  and  _359
REMARK  142  A    between atoms: _359  and  _360
REMARK  143  A    between atoms: _360  and  _361
REMARK  144  A    between atoms: _365  and  _367
REMARK  145  A    between atoms: _367  and  _368
REMARK  146  A    between atoms: _367  and  _370
REMARK  147  A    between atoms: _370  and  _371
REMARK  148  A    between atoms: _374  and  _376
REMARK  149  A    between atoms: _376  and  _377
REMARK  150  A    between atoms: _380  and  _382
REMARK  151  A    between atoms: _382  and  _383
REMARK  152  A    between atoms: _385  and  _387
REMARK  153  A    between atoms: _387  and  _388
REMARK  154  A    between atoms: _387  and  _390
REMARK  155  A    between atoms: _390  and  _391
REMARK  156  A    between atoms: _394  and  _396
REMARK  157  A    between atoms: _396  and  _397
REMARK  158  A    between atoms: _396  and  _399
REMARK  159  A    between atoms: _399  and  _400
REMARK  160  A    between atoms: _403  and  _405
REMARK  161  A    between atoms: _405  and  _406
REMARK  162  A    between atoms: _409  and  _411
REMARK  163  A    between atoms: _411  and  _412
REMARK  164  A    between atoms: _411  and  _414
REMARK  165  A    between atoms: _414  and  _415
REMARK  166  A    between atoms: _415  and  _416
REMARK  167  A    between atoms: _419  and  _421
REMARK  168  A    between atoms: _421  and  _422
REMARK  169  A    between atoms: _421  and  _424
REMARK  170  A    between atoms: _427  and  _429
REMARK  171  A    between atoms: _429  and  _430
REMARK  172  A    between atoms: _429  and  _432
REMARK  173  A    between atoms: _432  and  _433
REMARK  174  A    between atoms: _436  and  _438
REMARK  175  A    between atoms: _438  and  _439
REMARK  176  A    between atoms: _441  and  _443
REMARK  177  A    between atoms: _443  and  _444
REMARK  178  A    between atoms: _443  and  _446
REMARK  179  A    between atoms: _449  and  _451
REMARK  180  A    between atoms: _451  and  _452
REMARK  181  A    between atoms: _454  and  _456
REMARK  182  A    between atoms: _456  and  _457
REMARK  183  A    between atoms: _456  and  _459
REMARK  184  A    between atoms: _459  and  _460
REMARK  185  A    between atoms: _463  and  _465
REMARK  186  A    between atoms: _465  and  _466
REMARK  187  A    between atoms: _465  and  _468
REMARK  188  A    between atoms: _468  and  _469
REMARK  189  A    between atoms: _474  and  _476
REMARK  190  A    between atoms: _476  and  _477
REMARK  191  A    between atoms: _476  and  _479
REMARK  192  A    between atoms: _482  and  _484
REMARK  193  A    between atoms: _484  and  _485
REMARK  194  A    between atoms: _484  and  _487
REMARK  195  A    between atoms: _487  and  _488
REMARK  196  A    between atoms: _488  and  _489
REMARK  197  A    between atoms: _494  and  _496
REMARK  198  A    between atoms: _496  and  _497
REMARK  199  A    between atoms: _501  and  _502
REMARK  200  A    between atoms: _507  and  _509
REMARK  201  A    between atoms: _509  and  _510
REMARK  202  A    between atoms: _509  and  _512
REMARK  203  A    between atoms: _512  and  _513
REMARK  204  A    between atoms: _513  and  _514
REMARK  205  A    between atoms: _517  and  _519
REMARK  206  A    between atoms: _519  and  _520
REMARK  207  A    between atoms: _519  and  _522
REMARK  208  A    between atoms: _525  and  _527
REMARK  209  A    between atoms: _527  and  _528
REMARK  210  A    between atoms: _527  and  _530
REMARK  211  A    between atoms: _530  and  _531
REMARK  212  A    between atoms: _535  and  _536
REMARK  213  A    between atoms: _541  and  _543
REMARK  214  A    between atoms: _543  and  _544
REMARK  215  A    between atoms: _543  and  _546
REMARK  216  A    between atoms: _546  and  _547
REMARK  217  A    between atoms: _550  and  _552
REMARK  218  A    between atoms: _552  and  _553
REMARK  219  A    between atoms: _556  and  _558
REMARK  220  A    between atoms: _558  and  _559
REMARK  221  A    between atoms: _558  and  _561
REMARK  222  A    between atoms: _561  and  _562
REMARK  223  A    between atoms: _565  and  _567
REMARK  224  A    between atoms: _567  and  _568
REMARK  225  A    between atoms: _567  and  _570
REMARK  226  A    between atoms: _570  and  _571
REMARK  227  A    between atoms: _573  and  _575
REMARK  228  A    between atoms: _575  and  _576
REMARK  229  A    between atoms: _578  and  _580
REMARK  230  A    between atoms: _580  and  _581
REMARK  231  A    between atoms: _580  and  _583
REMARK  232  A    between atoms: _583  and  _584
REMARK  233  A    between atoms: _587  and  _589
REMARK  234  A    between atoms: _589  and  _590
REMARK  235  A    between atoms: _589  and  _592
REMARK                            x       y       z     vdW  Elec       q    Type
REMARK                         _______ _______ _______ _____ _____    ______ ____
ROOT
ATOM      1  O   HOH     1       0.238   1.685  18.034  0.00  0.00    +0.000 OA
ENDROOT
TORSDOF 0
REMARK  Name = ../refined-set-2016/4xtv/4xtv_pocket.pdb
REMARK  235 active torsions:
REMARK  status: ('A' for Active; 'I' for Inactive)
REMARK    1  A    between atoms: _1  and  _3
REMARK    2  A    between atoms: _3  and  _4
REMARK    3  A    between atoms: _3  and  _6
REMARK    4  A    between atoms: _6  and  _7
REMARK    5  A    between atoms: _10  and  _12
REMARK    6  A    between atoms: _12  and  _13
REMARK    7  A    between atoms: _15  and  _17
REMARK    8  A    between atoms: _17  and  _18
REMARK    9  A    between atoms: _17  and  _20
REMARK   10  A    between atoms: _20  and  _21
REMARK   11  A    between atoms: _23  and  _25
REMARK   12  A    between atoms: _25  and  _26
REMARK   13  A    between atoms: _25  and  _28
REMARK   14  A    between atoms: _28  and  _29
REMARK   15  A    between atoms: _32  and  _34
REMARK   16  A    between atoms: _34  and  _35
REMARK   17  A    between atoms: _34  and  _37
REMARK   18  A    between atoms: _37  and  _38
REMARK   19  A    between atoms: _43  and  _45
REMARK   20  A    between atoms: _45  and  _46
REMARK   21  A    between atoms: _49  and  _51
REMARK   22  A    between atoms: _51  and  _52
REMARK   23  A    between atoms: _51  and  _54
REMARK   24  A    between atoms: _54  and  _55
REMARK   25  A    between atoms: _58  and  _60
REMARK   26  A    between atoms: _60  and  _61
REMARK   27  A    between atoms: _60  and  _63
REMARK   28  A    between atoms: _63  and  _64
REMARK   29  A    between atoms: _67  and  _69
REMARK   30  A    between atoms: _69  and  _70
REMARK   31  A    between atoms: _69  and  _72
REMARK   32  A    between atoms: _72  and  _73
REMARK   33  A    between atoms: _76  and  _78
REMARK   34  A    between atoms: _78  and  _79
REMARK   35  A    between atoms: _82  and  _84
REMARK   36  A    between atoms: _84  and  _85
REMARK   37  A    between atoms: _84  and  _87
REMARK   38  A    between atoms: _87  and  _88
REMARK   39  A    between atoms: _88  and  _89
REMARK   40  A    between atoms: _94  and  _96
REMARK   41  A    between atoms: _96  and  _97
REMARK   42  A    between atoms: _96  and  _99
REMARK   43  A    between atoms: _99  and  _100
REMARK   44  A    between atoms: _103  and  _105
REMARK   45  A    between atoms: _105  and  _106
REMARK   46  A    between atoms: _109  and  _111
REMARK   47  A    between atoms: _111  and  _112
REMARK   48  A    between atoms: _114  and  _116
REMARK   49  A    between atoms: _116  and  _117
REMARK   50  A    between atoms: _116  and  _119
REMARK   51  A    between atoms: _119  and  _120
REMARK   52  A    between atoms: _120  and  _121
REMARK   53  A    between atoms: _121  and  _122
REMARK   54  A    between atoms: _131  and  _133
REMARK   55  A    between atoms: _133  and  _134
REMARK   56  A    between atoms: _136  and  _138
REMARK   57  A    between atoms: _138  and  _139
REMARK   58  A    between atoms: _138  and  _141
REMARK   59  A    between atoms: _141  and  _142
REMARK   60  A    between atoms: _142  and  _143
REMARK   61  A    between atoms: _143  and  _144
REMARK   62  A    between atoms: _153  and  _155
REMARK   63  A    between atoms: _155  and  _156
REMARK   64  A    between atoms: _155  and  _158
REMARK   65  A    between atoms: _158  and  _159
REMARK   66  A    between atoms: _164  and  _166
REMARK   67  A    between atoms: _166  and  _167
REMARK   68  A    between atoms: _169  and  _171
REMARK   69  A    between atoms: _171  and  _172
REMARK   70  A    between atoms: _171  and  _174
REMARK   71  A    between atoms: _174  and  _175
REMARK   72  A    between atoms: _175  and  _176
REMARK   73  A    between atoms: _176  and  _177
REMARK   74  A    between atoms: _186  and  _188
REMARK   75  A    between atoms: _188  and  _189
REMARK   76  A    between atoms: _191  and  _193
REMARK   77  A    between atoms: _193  and  _194
REMARK   78  A    between atoms: _193  and  _196
REMARK   79  A    between atoms: _196  and  _197
REMARK   80  A    between atoms: _207  and  _209
REMARK   81  A    between atoms: _209  and  _210
REMARK   82  A    between atoms: _213  and  _215
REMARK   83  A    between atoms: _215  and  _216
REMARK   84  A    between atoms: _219  and  _221
REMARK   85  A    between atoms: _221  and  _222
REMARK   86  A    between atoms: _221  and  _224
REMARK   87  A    between atoms: _224  and  _225
REMARK   88  A    between atoms: _228  and  _230
REMARK   89  A    between atoms: _230  and  _231
REMARK   90  A    between atoms: _230  and  _233
REMARK   91  A    between atoms: _233  and  _234
REMARK   92  A    between atoms: _234  and  _235
REMARK   93  A    between atoms: _240  and  _242
REMARK   94  A    between atoms: _242  and  _243
REMARK   95  A    between atoms: _242  and  _245
REMARK   96  A    between atoms: _245  and  _246
REMARK   97  A    between atoms: _249  and  _251
REMARK   98  A    between atoms: _251  and  _252
REMARK   99  A    between atoms: _251  and  _254
REMARK  100  A    between atoms: _254  and  _255
REMARK  101  A    between atoms: _258  and  _260
REMARK  102  A    between atoms: _260  and  _261
REMARK  103  A    between atoms: _260  and  _263
REMARK  104  A    between atoms: _263  and  _264
REMARK  105  A    between atoms: _267  and  _269
REMARK  106  A    between atoms: _269  and  _270
REMARK  107  A    between atoms: _269  and  _272
REMARK  108  A    between atoms: _272  and  _273
REMARK  109  A    between atoms: _275  and  _277
REMARK  110  A    between atoms: _277  and  _278
REMARK  111  A    between atoms: _277  and  _280
REMARK  112  A    between atoms: _283  and  _285
REMARK  113  A    between atoms: _285  and  _286
REMARK  114  A    between atoms: _285  and  _288
REMARK  115  A    between atoms: _288  and  _289
REMARK  116  A    between atoms: _289  and  _290
REMARK  117  A    between atoms: _290  and  _291
REMARK  118  A    between atoms: _291  and  _292
REMARK  119  A    between atoms: _296  and  _298
REMARK  120  A    between atoms: _298  and  _299
REMARK  121  A    between atoms: _298  and  _301
REMARK  122  A    between atoms: _301  and  _302
REMARK  123  A    between atoms: _313  and  _314
REMARK  124  A    between atoms: _319  and  _321
REMARK  125  A    between atoms: _321  and  _322
REMARK  126  A    between atoms: _321  and  _324
REMARK  127  A    between atoms: _324  and  _325
REMARK  128  A    between atoms: _330  and  _332
REMARK  129  A    between atoms: _332  and  _333
REMARK  130  A    between atoms: _332  and  _335
REMARK  131  A    between atoms: _335  and  _336
REMARK  132  A    between atoms: _339  and  _341
REMARK  133  A    between atoms: _341  and  _342
REMARK  134  A    between atoms: _341  and  _344
REMARK  135  A    between atoms: _347  and  _349
REMARK  136  A    between atoms: _349  and  _350
REMARK  137  A    between atoms: _352  and  _354
REMARK  138  A    between atoms: _354  and  _355
REMARK  139  A    between atoms: _354  and  _357
REMARK  140  A    between atoms: _357  and  _358
REMARK  141  A    between atoms: _358  and  _359
REMARK  142  A    between atoms: _359  and  _360
REMARK  143  A    between atoms: _360  and  _361
REMARK  144  A    between atoms: _365  and  _367
REMARK  145  A    between atoms: _367  and  _368
REMARK  146  A    between atoms: _367  and  _370
REMARK  147  A    between atoms: _370  and  _371
REMARK  148  A    between atoms: _374  and  _376
REMARK  149  A    between atoms: _376  and  _377
REMARK  150  A    between atoms: _380  and  _382
REMARK  151  A    between atoms: _382  and  _383
REMARK  152  A    between atoms: _385  and  _387
REMARK  153  A    between atoms: _387  and  _388
REMARK  154  A    between atoms: _387  and  _390
REMARK  155  A    between atoms: _390  and  _391
REMARK  156  A    between atoms: _394  and  _396
REMARK  157  A    between atoms: _396  and  _397
REMARK  158  A    between atoms: _396  and  _399
REMARK  159  A    between atoms: _399  and  _400
REMARK  160  A    between atoms: _403  and  _405
REMARK  161  A    between atoms: _405  and  _406
REMARK  162  A    between atoms: _409  and  _411
REMARK  163  A    between atoms: _411  and  _412
REMARK  164  A    between atoms: _411  and  _414
REMARK  165  A    between atoms: _414  and  _415
REMARK  166  A    between atoms: _415  and  _416
REMARK  167  A    between atoms: _419  and  _421
REMARK  168  A    between atoms: _421  and  _422
REMARK  169  A    between atoms: _421  and  _424
REMARK  170  A    between atoms: _427  and  _429
REMARK  171  A    between atoms: _429  and  _430
REMARK  172  A    between atoms: _429  and  _432
REMARK  173  A    between atoms: _432  and  _433
REMARK  174  A    between atoms: _436  and  _438
REMARK  175  A    between atoms: _438  and  _439
REMARK  176  A    between atoms: _441  and  _443
REMARK  177  A    between atoms: _443  and  _444
REMARK  178  A    between atoms: _443  and  _446
REMARK  179  A    between atoms: _449  and  _451
REMARK  180  A    between atoms: _451  and  _452
REMARK  181  A    between atoms: _454  and  _456
REMARK  182  A    between atoms: _456  and  _457
REMARK  183  A    between atoms: _456  and  _459
REMARK  184  A    between atoms: _459  and  _460
REMARK  185  A    between atoms: _463  and  _465
REMARK  186  A    between atoms: _465  and  _466
REMARK  187  A    between atoms: _465  and  _468
REMARK  188  A    between atoms: _468  and  _469
REMARK  189  A    between atoms: _474  and  _476
REMARK  190  A    between atoms: _476  and  _477
REMARK  191  A    between atoms: _476  and  _479
REMARK  192  A    between atoms: _482  and  _484
REMARK  193  A    between atoms: _484  and  _485
REMARK  194  A    between atoms: _484  and  _487
REMARK  195  A    between atoms: _487  and  _488
REMARK  196  A    between atoms: _488  and  _489
REMARK  197  A    between atoms: _494  and  _496
REMARK  198  A    between atoms: _496  and  _497
REMARK  199  A    between atoms: _501  and  _502
REMARK  200  A    between atoms: _507  and  _509
REMARK  201  A    between atoms: _509  and  _510
REMARK  202  A    between atoms: _509  and  _512
REMARK  203  A    between atoms: _512  and  _513
REMARK  204  A    between atoms: _513  and  _514
REMARK  205  A    between atoms: _517  and  _519
REMARK  206  A    between atoms: _519  and  _520
REMARK  207  A    between atoms: _519  and  _522
REMARK  208  A    between atoms: _525  and  _527
REMARK  209  A    between atoms: _527  and  _528
REMARK  210  A    between atoms: _527  and  _530
REMARK  211  A    between atoms: _530  and  _531
REMARK  212  A    between atoms: _535  and  _536
REMARK  213  A    between atoms: _541  and  _543
REMARK  214  A    between atoms: _543  and  _544
REMARK  215  A    between atoms: _543  and  _546
REMARK  216  A    between atoms: _546  and  _547
REMARK  217  A    between atoms: _550  and  _552
REMARK  218  A    between atoms: _552  and  _553
REMARK  219  A    between atoms: _556  and  _558
REMARK  220  A    between atoms: _558  and  _559
REMARK  221  A    between atoms: _558  and  _561
REMARK  222  A    between atoms: _561  and  _562
REMARK  223  A    between atoms: _565  and  _567
REMARK  224  A    between atoms: _567  and  _568
REMARK  225  A    between atoms: _567  and  _570
REMARK  226  A    between atoms: _570  and  _571
REMARK  227  A    between atoms: _573  and  _575
REMARK  228  A    between atoms: _575  and  _576
REMARK  229  A    between atoms: _578  and  _580
REMARK  230  A    between atoms: _580  and  _581
REMARK  231  A    between atoms: _580  and  _583
REMARK  232  A    between atoms: _583  and  _584
REMARK  233  A    between atoms: _587  and  _589
REMARK  234  A    between atoms: _589  and  _590
REMARK  235  A    between atoms: _589  and  _592
REMARK                            x       y       z     vdW  Elec       q    Type
REMARK                         _______ _______ _______ _____ _____    ______ ____
ROOT
ATOM      1  O   HOH     1       1.527   0.140  13.508  0.00  0.00    +0.000 OA
ENDROOT
TORSDOF 0
REMARK  Name = ../refined-set-2016/4xtv/4xtv_pocket.pdb
REMARK  235 active torsions:
REMARK  status: ('A' for Active; 'I' for Inactive)
REMARK    1  A    between atoms: _1  and  _3
REMARK    2  A    between atoms: _3  and  _4
REMARK    3  A    between atoms: _3  and  _6
REMARK    4  A    between atoms: _6  and  _7
REMARK    5  A    between atoms: _10  and  _12
REMARK    6  A    between atoms: _12  and  _13
REMARK    7  A    between atoms: _15  and  _17
REMARK    8  A    between atoms: _17  and  _18
REMARK    9  A    between atoms: _17  and  _20
REMARK   10  A    between atoms: _20  and  _21
REMARK   11  A    between atoms: _23  and  _25
REMARK   12  A    between atoms: _25  and  _26
REMARK   13  A    between atoms: _25  and  _28
REMARK   14  A    between atoms: _28  and  _29
REMARK   15  A    between atoms: _32  and  _34
REMARK   16  A    between atoms: _34  and  _35
REMARK   17  A    between atoms: _34  and  _37
REMARK   18  A    between atoms: _37  and  _38
REMARK   19  A    between atoms: _43  and  _45
REMARK   20  A    between atoms: _45  and  _46
REMARK   21  A    between atoms: _49  and  _51
REMARK   22  A    between atoms: _51  and  _52
REMARK   23  A    between atoms: _51  and  _54
REMARK   24  A    between atoms: _54  and  _55
REMARK   25  A    between atoms: _58  and  _60
REMARK   26  A    between atoms: _60  and  _61
REMARK   27  A    between atoms: _60  and  _63
REMARK   28  A    between atoms: _63  and  _64
REMARK   29  A    between atoms: _67  and  _69
REMARK   30  A    between atoms: _69  and  _70
REMARK   31  A    between atoms: _69  and  _72
REMARK   32  A    between atoms: _72  and  _73
REMARK   33  A    between atoms: _76  and  _78
REMARK   34  A    between atoms: _78  and  _79
REMARK   35  A    between atoms: _82  and  _84
REMARK   36  A    between atoms: _84  and  _85
REMARK   37  A    between atoms: _84  and  _87
REMARK   38  A    between atoms: _87  and  _88
REMARK   39  A    between atoms: _88  and  _89
REMARK   40  A    between atoms: _94  and  _96
REMARK   41  A    between atoms: _96  and  _97
REMARK   42  A    between atoms: _96  and  _99
REMARK   43  A    between atoms: _99  and  _100
REMARK   44  A    between atoms: _103  and  _105
REMARK   45  A    between atoms: _105  and  _106
REMARK   46  A    between atoms: _109  and  _111
REMARK   47  A    between atoms: _111  and  _112
REMARK   48  A    between atoms: _114  and  _116
REMARK   49  A    between atoms: _116  and  _117
REMARK   50  A    between atoms: _116  and  _119
REMARK   51  A    between atoms: _119  and  _120
REMARK   52  A    between atoms: _120  and  _121
REMARK   53  A    between atoms: _121  and  _122
REMARK   54  A    between atoms: _131  and  _133
REMARK   55  A    between atoms: _133  and  _134
REMARK   56  A    between atoms: _136  and  _138
REMARK   57  A    between atoms: _138  and  _139
REMARK   58  A    between atoms: _138  and  _141
REMARK   59  A    between atoms: _141  and  _142
REMARK   60  A    between atoms: _142  and  _143
REMARK   61  A    between atoms: _143  and  _144
REMARK   62  A    between atoms: _153  and  _155
REMARK   63  A    between atoms: _155  and  _156
REMARK   64  A    between atoms: _155  and  _158
REMARK   65  A    between atoms: _158  and  _159
REMARK   66  A    between atoms: _164  and  _166
REMARK   67  A    between atoms: _166  and  _167
REMARK   68  A    between atoms: _169  and  _171
REMARK   69  A    between atoms: _171  and  _172
REMARK   70  A    between atoms: _171  and  _174
REMARK   71  A    between atoms: _174  and  _175
REMARK   72  A    between atoms: _175  and  _176
REMARK   73  A    between atoms: _176  and  _177
REMARK   74  A    between atoms: _186  and  _188
REMARK   75  A    between atoms: _188  and  _189
REMARK   76  A    between atoms: _191  and  _193
REMARK   77  A    between atoms: _193  and  _194
REMARK   78  A    between atoms: _193  and  _196
REMARK   79  A    between atoms: _196  and  _197
REMARK   80  A    between atoms: _207  and  _209
REMARK   81  A    between atoms: _209  and  _210
REMARK   82  A    between atoms: _213  and  _215
REMARK   83  A    between atoms: _215  and  _216
REMARK   84  A    between atoms: _219  and  _221
REMARK   85  A    between atoms: _221  and  _222
REMARK   86  A    between atoms: _221  and  _224
REMARK   87  A    between atoms: _224  and  _225
REMARK   88  A    between atoms: _228  and  _230
REMARK   89  A    between atoms: _230  and  _231
REMARK   90  A    between atoms: _230  and  _233
REMARK   91  A    between atoms: _233  and  _234
REMARK   92  A    between atoms: _234  and  _235
REMARK   93  A    between atoms: _240  and  _242
REMARK   94  A    between atoms: _242  and  _243
REMARK   95  A    between atoms: _242  and  _245
REMARK   96  A    between atoms: _245  and  _246
REMARK   97  A    between atoms: _249  and  _251
REMARK   98  A    between atoms: _251  and  _252
REMARK   99  A    between atoms: _251  and  _254
REMARK  100  A    between atoms: _254  and  _255
REMARK  101  A    between atoms: _258  and  _260
REMARK  102  A    between atoms: _260  and  _261
REMARK  103  A    between atoms: _260  and  _263
REMARK  104  A    between atoms: _263  and  _264
REMARK  105  A    between atoms: _267  and  _269
REMARK  106  A    between atoms: _269  and  _270
REMARK  107  A    between atoms: _269  and  _272
REMARK  108  A    between atoms: _272  and  _273
REMARK  109  A    between atoms: _275  and  _277
REMARK  110  A    between atoms: _277  and  _278
REMARK  111  A    between atoms: _277  and  _280
REMARK  112  A    between atoms: _283  and  _285
REMARK  113  A    between atoms: _285  and  _286
REMARK  114  A    between atoms: _285  and  _288
REMARK  115  A    between atoms: _288  and  _289
REMARK  116  A    between atoms: _289  and  _290
REMARK  117  A    between atoms: _290  and  _291
REMARK  118  A    between atoms: _291  and  _292
REMARK  119  A    between atoms: _296  and  _298
REMARK  120  A    between atoms: _298  and  _299
REMARK  121  A    between atoms: _298  and  _301
REMARK  122  A    between atoms: _301  and  _302
REMARK  123  A    between atoms: _313  and  _314
REMARK  124  A    between atoms: _319  and  _321
REMARK  125  A    between atoms: _321  and  _322
REMARK  126  A    between atoms: _321  and  _324
REMARK  127  A    between atoms: _324  and  _325
REMARK  128  A    between atoms: _330  and  _332
REMARK  129  A    between atoms: _332  and  _333
REMARK  130  A    between atoms: _332  and  _335
REMARK  131  A    between atoms: _335  and  _336
REMARK  132  A    between atoms: _339  and  _341
REMARK  133  A    between atoms: _341  and  _342
REMARK  134  A    between atoms: _341  and  _344
REMARK  135  A    between atoms: _347  and  _349
REMARK  136  A    between atoms: _349  and  _350
REMARK  137  A    between atoms: _352  and  _354
REMARK  138  A    between atoms: _354  and  _355
REMARK  139  A    between atoms: _354  and  _357
REMARK  140  A    between atoms: _357  and  _358
REMARK  141  A    between atoms: _358  and  _359
REMARK  142  A    between atoms: _359  and  _360
REMARK  143  A    between atoms: _360  and  _361
REMARK  144  A    between atoms: _365  and  _367
REMARK  145  A    between atoms: _367  and  _368
REMARK  146  A    between atoms: _367  and  _370
REMARK  147  A    between atoms: _370  and  _371
REMARK  148  A    between atoms: _374  and  _376
REMARK  149  A    between atoms: _376  and  _377
REMARK  150  A    between atoms: _380  and  _382
REMARK  151  A    between atoms: _382  and  _383
REMARK  152  A    between atoms: _385  and  _387
REMARK  153  A    between atoms: _387  and  _388
REMARK  154  A    between atoms: _387  and  _390
REMARK  155  A    between atoms: _390  and  _391
REMARK  156  A    between atoms: _394  and  _396
REMARK  157  A    between atoms: _396  and  _397
REMARK  158  A    between atoms: _396  and  _399
REMARK  159  A    between atoms: _399  and  _400
REMARK  160  A    between atoms: _403  and  _405
REMARK  161  A    between atoms: _405  and  _406
REMARK  162  A    between atoms: _409  and  _411
REMARK  163  A    between atoms: _411  and  _412
REMARK  164  A    between atoms: _411  and  _414
REMARK  165  A    between atoms: _414  and  _415
REMARK  166  A    between atoms: _415  and  _416
REMARK  167  A    between atoms: _419  and  _421
REMARK  168  A    between atoms: _421  and  _422
REMARK  169  A    between atoms: _421  and  _424
REMARK  170  A    between atoms: _427  and  _429
REMARK  171  A    between atoms: _429  and  _430
REMARK  172  A    between atoms: _429  and  _432
REMARK  173  A    between atoms: _432  and  _433
REMARK  174  A    between atoms: _436  and  _438
REMARK  175  A    between atoms: _438  and  _439
REMARK  176  A    between atoms: _441  and  _443
REMARK  177  A    between atoms: _443  and  _444
REMARK  178  A    between atoms: _443  and  _446
REMARK  179  A    between atoms: _449  and  _451
REMARK  180  A    between atoms: _451  and  _452
REMARK  181  A    between atoms: _454  and  _456
REMARK  182  A    between atoms: _456  and  _457
REMARK  183  A    between atoms: _456  and  _459
REMARK  184  A    between atoms: _459  and  _460
REMARK  185  A    between atoms: _463  and  _465
REMARK  186  A    between atoms: _465  and  _466
REMARK  187  A    between atoms: _465  and  _468
REMARK  188  A    between atoms: _468  and  _469
REMARK  189  A    between atoms: _474  and  _476
REMARK  190  A    between atoms: _476  and  _477
REMARK  191  A    between atoms: _476  and  _479
REMARK  192  A    between atoms: _482  and  _484
REMARK  193  A    between atoms: _484  and  _485
REMARK  194  A    between atoms: _484  and  _487
REMARK  195  A    between atoms: _487  and  _488
REMARK  196  A    between atoms: _488  and  _489
REMARK  197  A    between atoms: _494  and  _496
REMARK  198  A    between atoms: _496  and  _497
REMARK  199  A    between atoms: _501  and  _502
REMARK  200  A    between atoms: _507  and  _509
REMARK  201  A    between atoms: _509  and  _510
REMARK  202  A    between atoms: _509  and  _512
REMARK  203  A    between atoms: _512  and  _513
REMARK  204  A    between atoms: _513  and  _514
REMARK  205  A    between atoms: _517  and  _519
REMARK  206  A    between atoms: _519  and  _520
REMARK  207  A    between atoms: _519  and  _522
REMARK  208  A    between atoms: _525  and  _527
REMARK  209  A    between atoms: _527  and  _528
REMARK  210  A    between atoms: _527  and  _530
REMARK  211  A    between atoms: _530  and  _531
REMARK  212  A    between atoms: _535  and  _536
REMARK  213  A    between atoms: _541  and  _543
REMARK  214  A    between atoms: _543  and  _544
REMARK  215  A    between atoms: _543  and  _546
REMARK  216  A    between atoms: _546  and  _547
REMARK  217  A    between atoms: _550  and  _552
REMARK  218  A    between atoms: _552  and  _553
REMARK  219  A    between atoms: _556  and  _558
REMARK  220  A    between atoms: _558  and  _559
REMARK  221  A    between atoms: _558  and  _561
REMARK  222  A    between atoms: _561  and  _562
REMARK  223  A    between atoms: _565  and  _567
REMARK  224  A    between atoms: _567  and  _568
REMARK  225  A    between atoms: _567  and  _570
REMARK  226  A    between atoms: _570  and  _571
REMARK  227  A    between atoms: _573  and  _575
REMARK  228  A    between atoms: _575  and  _576
REMARK  229  A    between atoms: _578  and  _580
REMARK  230  A    between atoms: _580  and  _581
REMARK  231  A    between atoms: _580  and  _583
REMARK  232  A    between atoms: _583  and  _584
REMARK  233  A    between atoms: _587  and  _589
REMARK  234  A    between atoms: _589  and  _590
REMARK  235  A    between atoms: _589  and  _592
REMARK                            x       y       z     vdW  Elec       q    Type
REMARK                         _______ _______ _______ _____ _____    ______ ____
ROOT
ATOM      1  O   HOH     1      -0.435   0.503  11.534  0.00  0.00    +0.000 OA
ENDROOT
TORSDOF 0
REMARK  Name = ../refined-set-2016/4xtv/4xtv_pocket.pdb
REMARK  235 active torsions:
REMARK  status: ('A' for Active; 'I' for Inactive)
REMARK    1  A    between atoms: _1  and  _3
REMARK    2  A    between atoms: _3  and  _4
REMARK    3  A    between atoms: _3  and  _6
REMARK    4  A    between atoms: _6  and  _7
REMARK    5  A    between atoms: _10  and  _12
REMARK    6  A    between atoms: _12  and  _13
REMARK    7  A    between atoms: _15  and  _17
REMARK    8  A    between atoms: _17  and  _18
REMARK    9  A    between atoms: _17  and  _20
REMARK   10  A    between atoms: _20  and  _21
REMARK   11  A    between atoms: _23  and  _25
REMARK   12  A    between atoms: _25  and  _26
REMARK   13  A    between atoms: _25  and  _28
REMARK   14  A    between atoms: _28  and  _29
REMARK   15  A    between atoms: _32  and  _34
REMARK   16  A    between atoms: _34  and  _35
REMARK   17  A    between atoms: _34  and  _37
REMARK   18  A    between atoms: _37  and  _38
REMARK   19  A    between atoms: _43  and  _45
REMARK   20  A    between atoms: _45  and  _46
REMARK   21  A    between atoms: _49  and  _51
REMARK   22  A    between atoms: _51  and  _52
REMARK   23  A    between atoms: _51  and  _54
REMARK   24  A    between atoms: _54  and  _55
REMARK   25  A    between atoms: _58  and  _60
REMARK   26  A    between atoms: _60  and  _61
REMARK   27  A    between atoms: _60  and  _63
REMARK   28  A    between atoms: _63  and  _64
REMARK   29  A    between atoms: _67  and  _69
REMARK   30  A    between atoms: _69  and  _70
REMARK   31  A    between atoms: _69  and  _72
REMARK   32  A    between atoms: _72  and  _73
REMARK   33  A    between atoms: _76  and  _78
REMARK   34  A    between atoms: _78  and  _79
REMARK   35  A    between atoms: _82  and  _84
REMARK   36  A    between atoms: _84  and  _85
REMARK   37  A    between atoms: _84  and  _87
REMARK   38  A    between atoms: _87  and  _88
REMARK   39  A    between atoms: _88  and  _89
REMARK   40  A    between atoms: _94  and  _96
REMARK   41  A    between atoms: _96  and  _97
REMARK   42  A    between atoms: _96  and  _99
REMARK   43  A    between atoms: _99  and  _100
REMARK   44  A    between atoms: _103  and  _105
REMARK   45  A    between atoms: _105  and  _106
REMARK   46  A    between atoms: _109  and  _111
REMARK   47  A    between atoms: _111  and  _112
REMARK   48  A    between atoms: _114  and  _116
REMARK   49  A    between atoms: _116  and  _117
REMARK   50  A    between atoms: _116  and  _119
REMARK   51  A    between atoms: _119  and  _120
REMARK   52  A    between atoms: _120  and  _121
REMARK   53  A    between atoms: _121  and  _122
REMARK   54  A    between atoms: _131  and  _133
REMARK   55  A    between atoms: _133  and  _134
REMARK   56  A    between atoms: _136  and  _138
REMARK   57  A    between atoms: _138  and  _139
REMARK   58  A    between atoms: _138  and  _141
REMARK   59  A    between atoms: _141  and  _142
REMARK   60  A    between atoms: _142  and  _143
REMARK   61  A    between atoms: _143  and  _144
REMARK   62  A    between atoms: _153  and  _155
REMARK   63  A    between atoms: _155  and  _156
REMARK   64  A    between atoms: _155  and  _158
REMARK   65  A    between atoms: _158  and  _159
REMARK   66  A    between atoms: _164  and  _166
REMARK   67  A    between atoms: _166  and  _167
REMARK   68  A    between atoms: _169  and  _171
REMARK   69  A    between atoms: _171  and  _172
REMARK   70  A    between atoms: _171  and  _174
REMARK   71  A    between atoms: _174  and  _175
REMARK   72  A    between atoms: _175  and  _176
REMARK   73  A    between atoms: _176  and  _177
REMARK   74  A    between atoms: _186  and  _188
REMARK   75  A    between atoms: _188  and  _189
REMARK   76  A    between atoms: _191  and  _193
REMARK   77  A    between atoms: _193  and  _194
REMARK   78  A    between atoms: _193  and  _196
REMARK   79  A    between atoms: _196  and  _197
REMARK   80  A    between atoms: _207  and  _209
REMARK   81  A    between atoms: _209  and  _210
REMARK   82  A    between atoms: _213  and  _215
REMARK   83  A    between atoms: _215  and  _216
REMARK   84  A    between atoms: _219  and  _221
REMARK   85  A    between atoms: _221  and  _222
REMARK   86  A    between atoms: _221  and  _224
REMARK   87  A    between atoms: _224  and  _225
REMARK   88  A    between atoms: _228  and  _230
REMARK   89  A    between atoms: _230  and  _231
REMARK   90  A    between atoms: _230  and  _233
REMARK   91  A    between atoms: _233  and  _234
REMARK   92  A    between atoms: _234  and  _235
REMARK   93  A    between atoms: _240  and  _242
REMARK   94  A    between atoms: _242  and  _243
REMARK   95  A    between atoms: _242  and  _245
REMARK   96  A    between atoms: _245  and  _246
REMARK   97  A    between atoms: _249  and  _251
REMARK   98  A    between atoms: _251  and  _252
REMARK   99  A    between atoms: _251  and  _254
REMARK  100  A    between atoms: _254  and  _255
REMARK  101  A    between atoms: _258  and  _260
REMARK  102  A    between atoms: _260  and  _261
REMARK  103  A    between atoms: _260  and  _263
REMARK  104  A    between atoms: _263  and  _264
REMARK  105  A    between atoms: _267  and  _269
REMARK  106  A    between atoms: _269  and  _270
REMARK  107  A    between atoms: _269  and  _272
REMARK  108  A    between atoms: _272  and  _273
REMARK  109  A    between atoms: _275  and  _277
REMARK  110  A    between atoms: _277  and  _278
REMARK  111  A    between atoms: _277  and  _280
REMARK  112  A    between atoms: _283  and  _285
REMARK  113  A    between atoms: _285  and  _286
REMARK  114  A    between atoms: _285  and  _288
REMARK  115  A    between atoms: _288  and  _289
REMARK  116  A    between atoms: _289  and  _290
REMARK  117  A    between atoms: _290  and  _291
REMARK  118  A    between atoms: _291  and  _292
REMARK  119  A    between atoms: _296  and  _298
REMARK  120  A    between atoms: _298  and  _299
REMARK  121  A    between atoms: _298  and  _301
REMARK  122  A    between atoms: _301  and  _302
REMARK  123  A    between atoms: _313  and  _314
REMARK  124  A    between atoms: _319  and  _321
REMARK  125  A    between atoms: _321  and  _322
REMARK  126  A    between atoms: _321  and  _324
REMARK  127  A    between atoms: _324  and  _325
REMARK  128  A    between atoms: _330  and  _332
REMARK  129  A    between atoms: _332  and  _333
REMARK  130  A    between atoms: _332  and  _335
REMARK  131  A    between atoms: _335  and  _336
REMARK  132  A    between atoms: _339  and  _341
REMARK  133  A    between atoms: _341  and  _342
REMARK  134  A    between atoms: _341  and  _344
REMARK  135  A    between atoms: _347  and  _349
REMARK  136  A    between atoms: _349  and  _350
REMARK  137  A    between atoms: _352  and  _354
REMARK  138  A    between atoms: _354  and  _355
REMARK  139  A    between atoms: _354  and  _357
REMARK  140  A    between atoms: _357  and  _358
REMARK  141  A    between atoms: _358  and  _359
REMARK  142  A    between atoms: _359  and  _360
REMARK  143  A    between atoms: _360  and  _361
REMARK  144  A    between atoms: _365  and  _367
REMARK  145  A    between atoms: _367  and  _368
REMARK  146  A    between atoms: _367  and  _370
REMARK  147  A    between atoms: _370  and  _371
REMARK  148  A    between atoms: _374  and  _376
REMARK  149  A    between atoms: _376  and  _377
REMARK  150  A    between atoms: _380  and  _382
REMARK  151  A    between atoms: _382  and  _383
REMARK  152  A    between atoms: _385  and  _387
REMARK  153  A    between atoms: _387  and  _388
REMARK  154  A    between atoms: _387  and  _390
REMARK  155  A    between atoms: _390  and  _391
REMARK  156  A    between atoms: _394  and  _396
REMARK  157  A    between atoms: _396  and  _397
REMARK  158  A    between atoms: _396  and  _399
REMARK  159  A    between atoms: _399  and  _400
REMARK  160  A    between atoms: _403  and  _405
REMARK  161  A    between atoms: _405  and  _406
REMARK  162  A    between atoms: _409  and  _411
REMARK  163  A    between atoms: _411  and  _412
REMARK  164  A    between atoms: _411  and  _414
REMARK  165  A    between atoms: _414  and  _415
REMARK  166  A    between atoms: _415  and  _416
REMARK  167  A    between atoms: _419  and  _421
REMARK  168  A    between atoms: _421  and  _422
REMARK  169  A    between atoms: _421  and  _424
REMARK  170  A    between atoms: _427  and  _429
REMARK  171  A    between atoms: _429  and  _430
REMARK  172  A    between atoms: _429  and  _432
REMARK  173  A    between atoms: _432  and  _433
REMARK  174  A    between atoms: _436  and  _438
REMARK  175  A    between atoms: _438  and  _439
REMARK  176  A    between atoms: _441  and  _443
REMARK  177  A    between atoms: _443  and  _444
REMARK  178  A    between atoms: _443  and  _446
REMARK  179  A    between atoms: _449  and  _451
REMARK  180  A    between atoms: _451  and  _452
REMARK  181  A    between atoms: _454  and  _456
REMARK  182  A    between atoms: _456  and  _457
REMARK  183  A    between atoms: _456  and  _459
REMARK  184  A    between atoms: _459  and  _460
REMARK  185  A    between atoms: _463  and  _465
REMARK  186  A    between atoms: _465  and  _466
REMARK  187  A    between atoms: _465  and  _468
REMARK  188  A    between atoms: _468  and  _469
REMARK  189  A    between atoms: _474  and  _476
REMARK  190  A    between atoms: _476  and  _477
REMARK  191  A    between atoms: _476  and  _479
REMARK  192  A    between atoms: _482  and  _484
REMARK  193  A    between atoms: _484  and  _485
REMARK  194  A    between atoms: _484  and  _487
REMARK  195  A    between atoms: _487  and  _488
REMARK  196  A    between atoms: _488  and  _489
REMARK  197  A    between atoms: _494  and  _496
REMARK  198  A    between atoms: _496  and  _497
REMARK  199  A    between atoms: _501  and  _502
REMARK  200  A    between atoms: _507  and  _509
REMARK  201  A    between atoms: _509  and  _510
REMARK  202  A    between atoms: _509  and  _512
REMARK  203  A    between atoms: _512  and  _513
REMARK  204  A    between atoms: _513  and  _514
REMARK  205  A    between atoms: _517  and  _519
REMARK  206  A    between atoms: _519  and  _520
REMARK  207  A    between atoms: _519  and  _522
REMARK  208  A    between atoms: _525  and  _527
REMARK  209  A    between atoms: _527  and  _528
REMARK  210  A    between atoms: _527  and  _530
REMARK  211  A    between atoms: _530  and  _531
REMARK  212  A    between atoms: _535  and  _536
REMARK  213  A    between atoms: _541  and  _543
REMARK  214  A    between atoms: _543  and  _544
REMARK  215  A    between atoms: _543  and  _546
REMARK  216  A    between atoms: _546  and  _547
REMARK  217  A    between atoms: _550  and  _552
REMARK  218  A    between atoms: _552  and  _553
REMARK  219  A    between atoms: _556  and  _558
REMARK  220  A    between atoms: _558  and  _559
REMARK  221  A    between atoms: _558  and  _561
REMARK  222  A    between atoms: _561  and  _562
REMARK  223  A    between atoms: _565  and  _567
REMARK  224  A    between atoms: _567  and  _568
REMARK  225  A    between atoms: _567  and  _570
REMARK  226  A    between atoms: _570  and  _571
REMARK  227  A    between atoms: _573  and  _575
REMARK  228  A    between atoms: _575  and  _576
REMARK  229  A    between atoms: _578  and  _580
REMARK  230  A    between atoms: _580  and  _581
REMARK  231  A    between atoms: _580  and  _583
REMARK  232  A    between atoms: _583  and  _584
REMARK  233  A    between atoms: _587  and  _589
REMARK  234  A    between atoms: _589  and  _590
REMARK  235  A    between atoms: _589  and  _592
REMARK                            x       y       z     vdW  Elec       q    Type
REMARK                         _______ _______ _______ _____ _____    ______ ____
ROOT
ATOM      1  O   HOH     1       7.742  -9.650  16.665  0.00  0.00    +0.000 OA
ENDROOT
TORSDOF 0
REMARK  Name = ../refined-set-2016/4xtv/4xtv_pocket.pdb
REMARK  235 active torsions:
REMARK  status: ('A' for Active; 'I' for Inactive)
REMARK    1  A    between atoms: _1  and  _3
REMARK    2  A    between atoms: _3  and  _4
REMARK    3  A    between atoms: _3  and  _6
REMARK    4  A    between atoms: _6  and  _7
REMARK    5  A    between atoms: _10  and  _12
REMARK    6  A    between atoms: _12  and  _13
REMARK    7  A    between atoms: _15  and  _17
REMARK    8  A    between atoms: _17  and  _18
REMARK    9  A    between atoms: _17  and  _20
REMARK   10  A    between atoms: _20  and  _21
REMARK   11  A    between atoms: _23  and  _25
REMARK   12  A    between atoms: _25  and  _26
REMARK   13  A    between atoms: _25  and  _28
REMARK   14  A    between atoms: _28  and  _29
REMARK   15  A    between atoms: _32  and  _34
REMARK   16  A    between atoms: _34  and  _35
REMARK   17  A    between atoms: _34  and  _37
REMARK   18  A    between atoms: _37  and  _38
REMARK   19  A    between atoms: _43  and  _45
REMARK   20  A    between atoms: _45  and  _46
REMARK   21  A    between atoms: _49  and  _51
REMARK   22  A    between atoms: _51  and  _52
REMARK   23  A    between atoms: _51  and  _54
REMARK   24  A    between atoms: _54  and  _55
REMARK   25  A    between atoms: _58  and  _60
REMARK   26  A    between atoms: _60  and  _61
REMARK   27  A    between atoms: _60  and  _63
REMARK   28  A    between atoms: _63  and  _64
REMARK   29  A    between atoms: _67  and  _69
REMARK   30  A    between atoms: _69  and  _70
REMARK   31  A    between atoms: _69  and  _72
REMARK   32  A    between atoms: _72  and  _73
REMARK   33  A    between atoms: _76  and  _78
REMARK   34  A    between atoms: _78  and  _79
REMARK   35  A    between atoms: _82  and  _84
REMARK   36  A    between atoms: _84  and  _85
REMARK   37  A    between atoms: _84  and  _87
REMARK   38  A    between atoms: _87  and  _88
REMARK   39  A    between atoms: _88  and  _89
REMARK   40  A    between atoms: _94  and  _96
REMARK   41  A    between atoms: _96  and  _97
REMARK   42  A    between atoms: _96  and  _99
REMARK   43  A    between atoms: _99  and  _100
REMARK   44  A    between atoms: _103  and  _105
REMARK   45  A    between atoms: _105  and  _106
REMARK   46  A    between atoms: _109  and  _111
REMARK   47  A    between atoms: _111  and  _112
REMARK   48  A    between atoms: _114  and  _116
REMARK   49  A    between atoms: _116  and  _117
REMARK   50  A    between atoms: _116  and  _119
REMARK   51  A    between atoms: _119  and  _120
REMARK   52  A    between atoms: _120  and  _121
REMARK   53  A    between atoms: _121  and  _122
REMARK   54  A    between atoms: _131  and  _133
REMARK   55  A    between atoms: _133  and  _134
REMARK   56  A    between atoms: _136  and  _138
REMARK   57  A    between atoms: _138  and  _139
REMARK   58  A    between atoms: _138  and  _141
REMARK   59  A    between atoms: _141  and  _142
REMARK   60  A    between atoms: _142  and  _143
REMARK   61  A    between atoms: _143  and  _144
REMARK   62  A    between atoms: _153  and  _155
REMARK   63  A    between atoms: _155  and  _156
REMARK   64  A    between atoms: _155  and  _158
REMARK   65  A    between atoms: _158  and  _159
REMARK   66  A    between atoms: _164  and  _166
REMARK   67  A    between atoms: _166  and  _167
REMARK   68  A    between atoms: _169  and  _171
REMARK   69  A    between atoms: _171  and  _172
REMARK   70  A    between atoms: _171  and  _174
REMARK   71  A    between atoms: _174  and  _175
REMARK   72  A    between atoms: _175  and  _176
REMARK   73  A    between atoms: _176  and  _177
REMARK   74  A    between atoms: _186  and  _188
REMARK   75  A    between atoms: _188  and  _189
REMARK   76  A    between atoms: _191  and  _193
REMARK   77  A    between atoms: _193  and  _194
REMARK   78  A    between atoms: _193  and  _196
REMARK   79  A    between atoms: _196  and  _197
REMARK   80  A    between atoms: _207  and  _209
REMARK   81  A    between atoms: _209  and  _210
REMARK   82  A    between atoms: _213  and  _215
REMARK   83  A    between atoms: _215  and  _216
REMARK   84  A    between atoms: _219  and  _221
REMARK   85  A    between atoms: _221  and  _222
REMARK   86  A    between atoms: _221  and  _224
REMARK   87  A    between atoms: _224  and  _225
REMARK   88  A    between atoms: _228  and  _230
REMARK   89  A    between atoms: _230  and  _231
REMARK   90  A    between atoms: _230  and  _233
REMARK   91  A    between atoms: _233  and  _234
REMARK   92  A    between atoms: _234  and  _235
REMARK   93  A    between atoms: _240  and  _242
REMARK   94  A    between atoms: _242  and  _243
REMARK   95  A    between atoms: _242  and  _245
REMARK   96  A    between atoms: _245  and  _246
REMARK   97  A    between atoms: _249  and  _251
REMARK   98  A    between atoms: _251  and  _252
REMARK   99  A    between atoms: _251  and  _254
REMARK  100  A    between atoms: _254  and  _255
REMARK  101  A    between atoms: _258  and  _260
REMARK  102  A    between atoms: _260  and  _261
REMARK  103  A    between atoms: _260  and  _263
REMARK  104  A    between atoms: _263  and  _264
REMARK  105  A    between atoms: _267  and  _269
REMARK  106  A    between atoms: _269  and  _270
REMARK  107  A    between atoms: _269  and  _272
REMARK  108  A    between atoms: _272  and  _273
REMARK  109  A    between atoms: _275  and  _277
REMARK  110  A    between atoms: _277  and  _278
REMARK  111  A    between atoms: _277  and  _280
REMARK  112  A    between atoms: _283  and  _285
REMARK  113  A    between atoms: _285  and  _286
REMARK  114  A    between atoms: _285  and  _288
REMARK  115  A    between atoms: _288  and  _289
REMARK  116  A    between atoms: _289  and  _290
REMARK  117  A    between atoms: _290  and  _291
REMARK  118  A    between atoms: _291  and  _292
REMARK  119  A    between atoms: _296  and  _298
REMARK  120  A    between atoms: _298  and  _299
REMARK  121  A    between atoms: _298  and  _301
REMARK  122  A    between atoms: _301  and  _302
REMARK  123  A    between atoms: _313  and  _314
REMARK  124  A    between atoms: _319  and  _321
REMARK  125  A    between atoms: _321  and  _322
REMARK  126  A    between atoms: _321  and  _324
REMARK  127  A    between atoms: _324  and  _325
REMARK  128  A    between atoms: _330  and  _332
REMARK  129  A    between atoms: _332  and  _333
REMARK  130  A    between atoms: _332  and  _335
REMARK  131  A    between atoms: _335  and  _336
REMARK  132  A    between atoms: _339  and  _341
REMARK  133  A    between atoms: _341  and  _342
REMARK  134  A    between atoms: _341  and  _344
REMARK  135  A    between atoms: _347  and  _349
REMARK  136  A    between atoms: _349  and  _350
REMARK  137  A    between atoms: _352  and  _354
REMARK  138  A    between atoms: _354  and  _355
REMARK  139  A    between atoms: _354  and  _357
REMARK  140  A    between atoms: _357  and  _358
REMARK  141  A    between atoms: _358  and  _359
REMARK  142  A    between atoms: _359  and  _360
REMARK  143  A    between atoms: _360  and  _361
REMARK  144  A    between atoms: _365  and  _367
REMARK  145  A    between atoms: _367  and  _368
REMARK  146  A    between atoms: _367  and  _370
REMARK  147  A    between atoms: _370  and  _371
REMARK  148  A    between atoms: _374  and  _376
REMARK  149  A    between atoms: _376  and  _377
REMARK  150  A    between atoms: _380  and  _382
REMARK  151  A    between atoms: _382  and  _383
REMARK  152  A    between atoms: _385  and  _387
REMARK  153  A    between atoms: _387  and  _388
REMARK  154  A    between atoms: _387  and  _390
REMARK  155  A    between atoms: _390  and  _391
REMARK  156  A    between atoms: _394  and  _396
REMARK  157  A    between atoms: _396  and  _397
REMARK  158  A    between atoms: _396  and  _399
REMARK  159  A    between atoms: _399  and  _400
REMARK  160  A    between atoms: _403  and  _405
REMARK  161  A    between atoms: _405  and  _406
REMARK  162  A    between atoms: _409  and  _411
REMARK  163  A    between atoms: _411  and  _412
REMARK  164  A    between atoms: _411  and  _414
REMARK  165  A    between atoms: _414  and  _415
REMARK  166  A    between atoms: _415  and  _416
REMARK  167  A    between atoms: _419  and  _421
REMARK  168  A    between atoms: _421  and  _422
REMARK  169  A    between atoms: _421  and  _424
REMARK  170  A    between atoms: _427  and  _429
REMARK  171  A    between atoms: _429  and  _430
REMARK  172  A    between atoms: _429  and  _432
REMARK  173  A    between atoms: _432  and  _433
REMARK  174  A    between atoms: _436  and  _438
REMARK  175  A    between atoms: _438  and  _439
REMARK  176  A    between atoms: _441  and  _443
REMARK  177  A    between atoms: _443  and  _444
REMARK  178  A    between atoms: _443  and  _446
REMARK  179  A    between atoms: _449  and  _451
REMARK  180  A    between atoms: _451  and  _452
REMARK  181  A    between atoms: _454  and  _456
REMARK  182  A    between atoms: _456  and  _457
REMARK  183  A    between atoms: _456  and  _459
REMARK  184  A    between atoms: _459  and  _460
REMARK  185  A    between atoms: _463  and  _465
REMARK  186  A    between atoms: _465  and  _466
REMARK  187  A    between atoms: _465  and  _468
REMARK  188  A    between atoms: _468  and  _469
REMARK  189  A    between atoms: _474  and  _476
REMARK  190  A    between atoms: _476  and  _477
REMARK  191  A    between atoms: _476  and  _479
REMARK  192  A    between atoms: _482  and  _484
REMARK  193  A    between atoms: _484  and  _485
REMARK  194  A    between atoms: _484  and  _487
REMARK  195  A    between atoms: _487  and  _488
REMARK  196  A    between atoms: _488  and  _489
REMARK  197  A    between atoms: _494  and  _496
REMARK  198  A    between atoms: _496  and  _497
REMARK  199  A    between atoms: _501  and  _502
REMARK  200  A    between atoms: _507  and  _509
REMARK  201  A    between atoms: _509  and  _510
REMARK  202  A    between atoms: _509  and  _512
REMARK  203  A    between atoms: _512  and  _513
REMARK  204  A    between atoms: _513  and  _514
REMARK  205  A    between atoms: _517  and  _519
REMARK  206  A    between atoms: _519  and  _520
REMARK  207  A    between atoms: _519  and  _522
REMARK  208  A    between atoms: _525  and  _527
REMARK  209  A    between atoms: _527  and  _528
REMARK  210  A    between atoms: _527  and  _530
REMARK  211  A    between atoms: _530  and  _531
REMARK  212  A    between atoms: _535  and  _536
REMARK  213  A    between atoms: _541  and  _543
REMARK  214  A    between atoms: _543  and  _544
REMARK  215  A    between atoms: _543  and  _546
REMARK  216  A    between atoms: _546  and  _547
REMARK  217  A    between atoms: _550  and  _552
REMARK  218  A    between atoms: _552  and  _553
REMARK  219  A    between atoms: _556  and  _558
REMARK  220  A    between atoms: _558  and  _559
REMARK  221  A    between atoms: _558  and  _561
REMARK  222  A    between atoms: _561  and  _562
REMARK  223  A    between atoms: _565  and  _567
REMARK  224  A    between atoms: _567  and  _568
REMARK  225  A    between atoms: _567  and  _570
REMARK  226  A    between atoms: _570  and  _571
REMARK  227  A    between atoms: _573  and  _575
REMARK  228  A    between atoms: _575  and  _576
REMARK  229  A    between atoms: _578  and  _580
REMARK  230  A    between atoms: _580  and  _581
REMARK  231  A    between atoms: _580  and  _583
REMARK  232  A    between atoms: _583  and  _584
REMARK  233  A    between atoms: _587  and  _589
REMARK  234  A    between atoms: _589  and  _590
REMARK  235  A    between atoms: _589  and  _592
REMARK                            x       y       z     vdW  Elec       q    Type
REMARK                         _______ _______ _______ _____ _____    ______ ____
ROOT
ATOM      1  O   HOH     1      -3.558   0.290   3.408  0.00  0.00    +0.000 OA
ENDROOT
TORSDOF 0
REMARK  Name = ../refined-set-2016/4xtv/4xtv_pocket.pdb
REMARK  235 active torsions:
REMARK  status: ('A' for Active; 'I' for Inactive)
REMARK    1  A    between atoms: _1  and  _3
REMARK    2  A    between atoms: _3  and  _4
REMARK    3  A    between atoms: _3  and  _6
REMARK    4  A    between atoms: _6  and  _7
REMARK    5  A    between atoms: _10  and  _12
REMARK    6  A    between atoms: _12  and  _13
REMARK    7  A    between atoms: _15  and  _17
REMARK    8  A    between atoms: _17  and  _18
REMARK    9  A    between atoms: _17  and  _20
REMARK   10  A    between atoms: _20  and  _21
REMARK   11  A    between atoms: _23  and  _25
REMARK   12  A    between atoms: _25  and  _26
REMARK   13  A    between atoms: _25  and  _28
REMARK   14  A    between atoms: _28  and  _29
REMARK   15  A    between atoms: _32  and  _34
REMARK   16  A    between atoms: _34  and  _35
REMARK   17  A    between atoms: _34  and  _37
REMARK   18  A    between atoms: _37  and  _38
REMARK   19  A    between atoms: _43  and  _45
REMARK   20  A    between atoms: _45  and  _46
REMARK   21  A    between atoms: _49  and  _51
REMARK   22  A    between atoms: _51  and  _52
REMARK   23  A    between atoms: _51  and  _54
REMARK   24  A    between atoms: _54  and  _55
REMARK   25  A    between atoms: _58  and  _60
REMARK   26  A    between atoms: _60  and  _61
REMARK   27  A    between atoms: _60  and  _63
REMARK   28  A    between atoms: _63  and  _64
REMARK   29  A    between atoms: _67  and  _69
REMARK   30  A    between atoms: _69  and  _70
REMARK   31  A    between atoms: _69  and  _72
REMARK   32  A    between atoms: _72  and  _73
REMARK   33  A    between atoms: _76  and  _78
REMARK   34  A    between atoms: _78  and  _79
REMARK   35  A    between atoms: _82  and  _84
REMARK   36  A    between atoms: _84  and  _85
REMARK   37  A    between atoms: _84  and  _87
REMARK   38  A    between atoms: _87  and  _88
REMARK   39  A    between atoms: _88  and  _89
REMARK   40  A    between atoms: _94  and  _96
REMARK   41  A    between atoms: _96  and  _97
REMARK   42  A    between atoms: _96  and  _99
REMARK   43  A    between atoms: _99  and  _100
REMARK   44  A    between atoms: _103  and  _105
REMARK   45  A    between atoms: _105  and  _106
REMARK   46  A    between atoms: _109  and  _111
REMARK   47  A    between atoms: _111  and  _112
REMARK   48  A    between atoms: _114  and  _116
REMARK   49  A    between atoms: _116  and  _117
REMARK   50  A    between atoms: _116  and  _119
REMARK   51  A    between atoms: _119  and  _120
REMARK   52  A    between atoms: _120  and  _121
REMARK   53  A    between atoms: _121  and  _122
REMARK   54  A    between atoms: _131  and  _133
REMARK   55  A    between atoms: _133  and  _134
REMARK   56  A    between atoms: _136  and  _138
REMARK   57  A    between atoms: _138  and  _139
REMARK   58  A    between atoms: _138  and  _141
REMARK   59  A    between atoms: _141  and  _142
REMARK   60  A    between atoms: _142  and  _143
REMARK   61  A    between atoms: _143  and  _144
REMARK   62  A    between atoms: _153  and  _155
REMARK   63  A    between atoms: _155  and  _156
REMARK   64  A    between atoms: _155  and  _158
REMARK   65  A    between atoms: _158  and  _159
REMARK   66  A    between atoms: _164  and  _166
REMARK   67  A    between atoms: _166  and  _167
REMARK   68  A    between atoms: _169  and  _171
REMARK   69  A    between atoms: _171  and  _172
REMARK   70  A    between atoms: _171  and  _174
REMARK   71  A    between atoms: _174  and  _175
REMARK   72  A    between atoms: _175  and  _176
REMARK   73  A    between atoms: _176  and  _177
REMARK   74  A    between atoms: _186  and  _188
REMARK   75  A    between atoms: _188  and  _189
REMARK   76  A    between atoms: _191  and  _193
REMARK   77  A    between atoms: _193  and  _194
REMARK   78  A    between atoms: _193  and  _196
REMARK   79  A    between atoms: _196  and  _197
REMARK   80  A    between atoms: _207  and  _209
REMARK   81  A    between atoms: _209  and  _210
REMARK   82  A    between atoms: _213  and  _215
REMARK   83  A    between atoms: _215  and  _216
REMARK   84  A    between atoms: _219  and  _221
REMARK   85  A    between atoms: _221  and  _222
REMARK   86  A    between atoms: _221  and  _224
REMARK   87  A    between atoms: _224  and  _225
REMARK   88  A    between atoms: _228  and  _230
REMARK   89  A    between atoms: _230  and  _231
REMARK   90  A    between atoms: _230  and  _233
REMARK   91  A    between atoms: _233  and  _234
REMARK   92  A    between atoms: _234  and  _235
REMARK   93  A    between atoms: _240  and  _242
REMARK   94  A    between atoms: _242  and  _243
REMARK   95  A    between atoms: _242  and  _245
REMARK   96  A    between atoms: _245  and  _246
REMARK   97  A    between atoms: _249  and  _251
REMARK   98  A    between atoms: _251  and  _252
REMARK   99  A    between atoms: _251  and  _254
REMARK  100  A    between atoms: _254  and  _255
REMARK  101  A    between atoms: _258  and  _260
REMARK  102  A    between atoms: _260  and  _261
REMARK  103  A    between atoms: _260  and  _263
REMARK  104  A    between atoms: _263  and  _264
REMARK  105  A    between atoms: _267  and  _269
REMARK  106  A    between atoms: _269  and  _270
REMARK  107  A    between atoms: _269  and  _272
REMARK  108  A    between atoms: _272  and  _273
REMARK  109  A    between atoms: _275  and  _277
REMARK  110  A    between atoms: _277  and  _278
REMARK  111  A    between atoms: _277  and  _280
REMARK  112  A    between atoms: _283  and  _285
REMARK  113  A    between atoms: _285  and  _286
REMARK  114  A    between atoms: _285  and  _288
REMARK  115  A    between atoms: _288  and  _289
REMARK  116  A    between atoms: _289  and  _290
REMARK  117  A    between atoms: _290  and  _291
REMARK  118  A    between atoms: _291  and  _292
REMARK  119  A    between atoms: _296  and  _298
REMARK  120  A    between atoms: _298  and  _299
REMARK  121  A    between atoms: _298  and  _301
REMARK  122  A    between atoms: _301  and  _302
REMARK  123  A    between atoms: _313  and  _314
REMARK  124  A    between atoms: _319  and  _321
REMARK  125  A    between atoms: _321  and  _322
REMARK  126  A    between atoms: _321  and  _324
REMARK  127  A    between atoms: _324  and  _325
REMARK  128  A    between atoms: _330  and  _332
REMARK  129  A    between atoms: _332  and  _333
REMARK  130  A    between atoms: _332  and  _335
REMARK  131  A    between atoms: _335  and  _336
REMARK  132  A    between atoms: _339  and  _341
REMARK  133  A    between atoms: _341  and  _342
REMARK  134  A    between atoms: _341  and  _344
REMARK  135  A    between atoms: _347  and  _349
REMARK  136  A    between atoms: _349  and  _350
REMARK  137  A    between atoms: _352  and  _354
REMARK  138  A    between atoms: _354  and  _355
REMARK  139  A    between atoms: _354  and  _357
REMARK  140  A    between atoms: _357  and  _358
REMARK  141  A    between atoms: _358  and  _359
REMARK  142  A    between atoms: _359  and  _360
REMARK  143  A    between atoms: _360  and  _361
REMARK  144  A    between atoms: _365  and  _367
REMARK  145  A    between atoms: _367  and  _368
REMARK  146  A    between atoms: _367  and  _370
REMARK  147  A    between atoms: _370  and  _371
REMARK  148  A    between atoms: _374  and  _376
REMARK  149  A    between atoms: _376  and  _377
REMARK  150  A    between atoms: _380  and  _382
REMARK  151  A    between atoms: _382  and  _383
REMARK  152  A    between atoms: _385  and  _387
REMARK  153  A    between atoms: _387  and  _388
REMARK  154  A    between atoms: _387  and  _390
REMARK  155  A    between atoms: _390  and  _391
REMARK  156  A    between atoms: _394  and  _396
REMARK  157  A    between atoms: _396  and  _397
REMARK  158  A    between atoms: _396  and  _399
REMARK  159  A    between atoms: _399  and  _400
REMARK  160  A    between atoms: _403  and  _405
REMARK  161  A    between atoms: _405  and  _406
REMARK  162  A    between atoms: _409  and  _411
REMARK  163  A    between atoms: _411  and  _412
REMARK  164  A    between atoms: _411  and  _414
REMARK  165  A    between atoms: _414  and  _415
REMARK  166  A    between atoms: _415  and  _416
REMARK  167  A    between atoms: _419  and  _421
REMARK  168  A    between atoms: _421  and  _422
REMARK  169  A    between atoms: _421  and  _424
REMARK  170  A    between atoms: _427  and  _429
REMARK  171  A    between atoms: _429  and  _430
REMARK  172  A    between atoms: _429  and  _432
REMARK  173  A    between atoms: _432  and  _433
REMARK  174  A    between atoms: _436  and  _438
REMARK  175  A    between atoms: _438  and  _439
REMARK  176  A    between atoms: _441  and  _443
REMARK  177  A    between atoms: _443  and  _444
REMARK  178  A    between atoms: _443  and  _446
REMARK  179  A    between atoms: _449  and  _451
REMARK  180  A    between atoms: _451  and  _452
REMARK  181  A    between atoms: _454  and  _456
REMARK  182  A    between atoms: _456  and  _457
REMARK  183  A    between atoms: _456  and  _459
REMARK  184  A    between atoms: _459  and  _460
REMARK  185  A    between atoms: _463  and  _465
REMARK  186  A    between atoms: _465  and  _466
REMARK  187  A    between atoms: _465  and  _468
REMARK  188  A    between atoms: _468  and  _469
REMARK  189  A    between atoms: _474  and  _476
REMARK  190  A    between atoms: _476  and  _477
REMARK  191  A    between atoms: _476  and  _479
REMARK  192  A    between atoms: _482  and  _484
REMARK  193  A    between atoms: _484  and  _485
REMARK  194  A    between atoms: _484  and  _487
REMARK  195  A    between atoms: _487  and  _488
REMARK  196  A    between atoms: _488  and  _489
REMARK  197  A    between atoms: _494  and  _496
REMARK  198  A    between atoms: _496  and  _497
REMARK  199  A    between atoms: _501  and  _502
REMARK  200  A    between atoms: _507  and  _509
REMARK  201  A    between atoms: _509  and  _510
REMARK  202  A    between atoms: _509  and  _512
REMARK  203  A    between atoms: _512  and  _513
REMARK  204  A    between atoms: _513  and  _514
REMARK  205  A    between atoms: _517  and  _519
REMARK  206  A    between atoms: _519  and  _520
REMARK  207  A    between atoms: _519  and  _522
REMARK  208  A    between atoms: _525  and  _527
REMARK  209  A    between atoms: _527  and  _528
REMARK  210  A    between atoms: _527  and  _530
REMARK  211  A    between atoms: _530  and  _531
REMARK  212  A    between atoms: _535  and  _536
REMARK  213  A    between atoms: _541  and  _543
REMARK  214  A    between atoms: _543  and  _544
REMARK  215  A    between atoms: _543  and  _546
REMARK  216  A    between atoms: _546  and  _547
REMARK  217  A    between atoms: _550  and  _552
REMARK  218  A    between atoms: _552  and  _553
REMARK  219  A    between atoms: _556  and  _558
REMARK  220  A    between atoms: _558  and  _559
REMARK  221  A    between atoms: _558  and  _561
REMARK  222  A    between atoms: _561  and  _562
REMARK  223  A    between atoms: _565  and  _567
REMARK  224  A    between atoms: _567  and  _568
REMARK  225  A    between atoms: _567  and  _570
REMARK  226  A    between atoms: _570  and  _571
REMARK  227  A    between atoms: _573  and  _575
REMARK  228  A    between atoms: _575  and  _576
REMARK  229  A    between atoms: _578  and  _580
REMARK  230  A    between atoms: _580  and  _581
REMARK  231  A    between atoms: _580  and  _583
REMARK  232  A    between atoms: _583  and  _584
REMARK  233  A    between atoms: _587  and  _589
REMARK  234  A    between atoms: _589  and  _590
REMARK  235  A    between atoms: _589  and  _592
REMARK                            x       y       z     vdW  Elec       q    Type
REMARK                         _______ _______ _______ _____ _____    ______ ____
ROOT
ATOM      1  O   HOH     1      -7.966   0.366   6.420  0.00  0.00    +0.000 OA
ENDROOT
TORSDOF 0
REMARK  Name = ../refined-set-2016/4xtv/4xtv_pocket.pdb
REMARK  235 active torsions:
REMARK  status: ('A' for Active; 'I' for Inactive)
REMARK    1  A    between atoms: _1  and  _3
REMARK    2  A    between atoms: _3  and  _4
REMARK    3  A    between atoms: _3  and  _6
REMARK    4  A    between atoms: _6  and  _7
REMARK    5  A    between atoms: _10  and  _12
REMARK    6  A    between atoms: _12  and  _13
REMARK    7  A    between atoms: _15  and  _17
REMARK    8  A    between atoms: _17  and  _18
REMARK    9  A    between atoms: _17  and  _20
REMARK   10  A    between atoms: _20  and  _21
REMARK   11  A    between atoms: _23  and  _25
REMARK   12  A    between atoms: _25  and  _26
REMARK   13  A    between atoms: _25  and  _28
REMARK   14  A    between atoms: _28  and  _29
REMARK   15  A    between atoms: _32  and  _34
REMARK   16  A    between atoms: _34  and  _35
REMARK   17  A    between atoms: _34  and  _37
REMARK   18  A    between atoms: _37  and  _38
REMARK   19  A    between atoms: _43  and  _45
REMARK   20  A    between atoms: _45  and  _46
REMARK   21  A    between atoms: _49  and  _51
REMARK   22  A    between atoms: _51  and  _52
REMARK   23  A    between atoms: _51  and  _54
REMARK   24  A    between atoms: _54  and  _55
REMARK   25  A    between atoms: _58  and  _60
REMARK   26  A    between atoms: _60  and  _61
REMARK   27  A    between atoms: _60  and  _63
REMARK   28  A    between atoms: _63  and  _64
REMARK   29  A    between atoms: _67  and  _69
REMARK   30  A    between atoms: _69  and  _70
REMARK   31  A    between atoms: _69  and  _72
REMARK   32  A    between atoms: _72  and  _73
REMARK   33  A    between atoms: _76  and  _78
REMARK   34  A    between atoms: _78  and  _79
REMARK   35  A    between atoms: _82  and  _84
REMARK   36  A    between atoms: _84  and  _85
REMARK   37  A    between atoms: _84  and  _87
REMARK   38  A    between atoms: _87  and  _88
REMARK   39  A    between atoms: _88  and  _89
REMARK   40  A    between atoms: _94  and  _96
REMARK   41  A    between atoms: _96  and  _97
REMARK   42  A    between atoms: _96  and  _99
REMARK   43  A    between atoms: _99  and  _100
REMARK   44  A    between atoms: _103  and  _105
REMARK   45  A    between atoms: _105  and  _106
REMARK   46  A    between atoms: _109  and  _111
REMARK   47  A    between atoms: _111  and  _112
REMARK   48  A    between atoms: _114  and  _116
REMARK   49  A    between atoms: _116  and  _117
REMARK   50  A    between atoms: _116  and  _119
REMARK   51  A    between atoms: _119  and  _120
REMARK   52  A    between atoms: _120  and  _121
REMARK   53  A    between atoms: _121  and  _122
REMARK   54  A    between atoms: _131  and  _133
REMARK   55  A    between atoms: _133  and  _134
REMARK   56  A    between atoms: _136  and  _138
REMARK   57  A    between atoms: _138  and  _139
REMARK   58  A    between atoms: _138  and  _141
REMARK   59  A    between atoms: _141  and  _142
REMARK   60  A    between atoms: _142  and  _143
REMARK   61  A    between atoms: _143  and  _144
REMARK   62  A    between atoms: _153  and  _155
REMARK   63  A    between atoms: _155  and  _156
REMARK   64  A    between atoms: _155  and  _158
REMARK   65  A    between atoms: _158  and  _159
REMARK   66  A    between atoms: _164  and  _166
REMARK   67  A    between atoms: _166  and  _167
REMARK   68  A    between atoms: _169  and  _171
REMARK   69  A    between atoms: _171  and  _172
REMARK   70  A    between atoms: _171  and  _174
REMARK   71  A    between atoms: _174  and  _175
REMARK   72  A    between atoms: _175  and  _176
REMARK   73  A    between atoms: _176  and  _177
REMARK   74  A    between atoms: _186  and  _188
REMARK   75  A    between atoms: _188  and  _189
REMARK   76  A    between atoms: _191  and  _193
REMARK   77  A    between atoms: _193  and  _194
REMARK   78  A    between atoms: _193  and  _196
REMARK   79  A    between atoms: _196  and  _197
REMARK   80  A    between atoms: _207  and  _209
REMARK   81  A    between atoms: _209  and  _210
REMARK   82  A    between atoms: _213  and  _215
REMARK   83  A    between atoms: _215  and  _216
REMARK   84  A    between atoms: _219  and  _221
REMARK   85  A    between atoms: _221  and  _222
REMARK   86  A    between atoms: _221  and  _224
REMARK   87  A    between atoms: _224  and  _225
REMARK   88  A    between atoms: _228  and  _230
REMARK   89  A    between atoms: _230  and  _231
REMARK   90  A    between atoms: _230  and  _233
REMARK   91  A    between atoms: _233  and  _234
REMARK   92  A    between atoms: _234  and  _235
REMARK   93  A    between atoms: _240  and  _242
REMARK   94  A    between atoms: _242  and  _243
REMARK   95  A    between atoms: _242  and  _245
REMARK   96  A    between atoms: _245  and  _246
REMARK   97  A    between atoms: _249  and  _251
REMARK   98  A    between atoms: _251  and  _252
REMARK   99  A    between atoms: _251  and  _254
REMARK  100  A    between atoms: _254  and  _255
REMARK  101  A    between atoms: _258  and  _260
REMARK  102  A    between atoms: _260  and  _261
REMARK  103  A    between atoms: _260  and  _263
REMARK  104  A    between atoms: _263  and  _264
REMARK  105  A    between atoms: _267  and  _269
REMARK  106  A    between atoms: _269  and  _270
REMARK  107  A    between atoms: _269  and  _272
REMARK  108  A    between atoms: _272  and  _273
REMARK  109  A    between atoms: _275  and  _277
REMARK  110  A    between atoms: _277  and  _278
REMARK  111  A    between atoms: _277  and  _280
REMARK  112  A    between atoms: _283  and  _285
REMARK  113  A    between atoms: _285  and  _286
REMARK  114  A    between atoms: _285  and  _288
REMARK  115  A    between atoms: _288  and  _289
REMARK  116  A    between atoms: _289  and  _290
REMARK  117  A    between atoms: _290  and  _291
REMARK  118  A    between atoms: _291  and  _292
REMARK  119  A    between atoms: _296  and  _298
REMARK  120  A    between atoms: _298  and  _299
REMARK  121  A    between atoms: _298  and  _301
REMARK  122  A    between atoms: _301  and  _302
REMARK  123  A    between atoms: _313  and  _314
REMARK  124  A    between atoms: _319  and  _321
REMARK  125  A    between atoms: _321  and  _322
REMARK  126  A    between atoms: _321  and  _324
REMARK  127  A    between atoms: _324  and  _325
REMARK  128  A    between atoms: _330  and  _332
REMARK  129  A    between atoms: _332  and  _333
REMARK  130  A    between atoms: _332  and  _335
REMARK  131  A    between atoms: _335  and  _336
REMARK  132  A    between atoms: _339  and  _341
REMARK  133  A    between atoms: _341  and  _342
REMARK  134  A    between atoms: _341  and  _344
REMARK  135  A    between atoms: _347  and  _349
REMARK  136  A    between atoms: _349  and  _350
REMARK  137  A    between atoms: _352  and  _354
REMARK  138  A    between atoms: _354  and  _355
REMARK  139  A    between atoms: _354  and  _357
REMARK  140  A    between atoms: _357  and  _358
REMARK  141  A    between atoms: _358  and  _359
REMARK  142  A    between atoms: _359  and  _360
REMARK  143  A    between atoms: _360  and  _361
REMARK  144  A    between atoms: _365  and  _367
REMARK  145  A    between atoms: _367  and  _368
REMARK  146  A    between atoms: _367  and  _370
REMARK  147  A    between atoms: _370  and  _371
REMARK  148  A    between atoms: _374  and  _376
REMARK  149  A    between atoms: _376  and  _377
REMARK  150  A    between atoms: _380  and  _382
REMARK  151  A    between atoms: _382  and  _383
REMARK  152  A    between atoms: _385  and  _387
REMARK  153  A    between atoms: _387  and  _388
REMARK  154  A    between atoms: _387  and  _390
REMARK  155  A    between atoms: _390  and  _391
REMARK  156  A    between atoms: _394  and  _396
REMARK  157  A    between atoms: _396  and  _397
REMARK  158  A    between atoms: _396  and  _399
REMARK  159  A    between atoms: _399  and  _400
REMARK  160  A    between atoms: _403  and  _405
REMARK  161  A    between atoms: _405  and  _406
REMARK  162  A    between atoms: _409  and  _411
REMARK  163  A    between atoms: _411  and  _412
REMARK  164  A    between atoms: _411  and  _414
REMARK  165  A    between atoms: _414  and  _415
REMARK  166  A    between atoms: _415  and  _416
REMARK  167  A    between atoms: _419  and  _421
REMARK  168  A    between atoms: _421  and  _422
REMARK  169  A    between atoms: _421  and  _424
REMARK  170  A    between atoms: _427  and  _429
REMARK  171  A    between atoms: _429  and  _430
REMARK  172  A    between atoms: _429  and  _432
REMARK  173  A    between atoms: _432  and  _433
REMARK  174  A    between atoms: _436  and  _438
REMARK  175  A    between atoms: _438  and  _439
REMARK  176  A    between atoms: _441  and  _443
REMARK  177  A    between atoms: _443  and  _444
REMARK  178  A    between atoms: _443  and  _446
REMARK  179  A    between atoms: _449  and  _451
REMARK  180  A    between atoms: _451  and  _452
REMARK  181  A    between atoms: _454  and  _456
REMARK  182  A    between atoms: _456  and  _457
REMARK  183  A    between atoms: _456  and  _459
REMARK  184  A    between atoms: _459  and  _460
REMARK  185  A    between atoms: _463  and  _465
REMARK  186  A    between atoms: _465  and  _466
REMARK  187  A    between atoms: _465  and  _468
REMARK  188  A    between atoms: _468  and  _469
REMARK  189  A    between atoms: _474  and  _476
REMARK  190  A    between atoms: _476  and  _477
REMARK  191  A    between atoms: _476  and  _479
REMARK  192  A    between atoms: _482  and  _484
REMARK  193  A    between atoms: _484  and  _485
REMARK  194  A    between atoms: _484  and  _487
REMARK  195  A    between atoms: _487  and  _488
REMARK  196  A    between atoms: _488  and  _489
REMARK  197  A    between atoms: _494  and  _496
REMARK  198  A    between atoms: _496  and  _497
REMARK  199  A    between atoms: _501  and  _502
REMARK  200  A    between atoms: _507  and  _509
REMARK  201  A    between atoms: _509  and  _510
REMARK  202  A    between atoms: _509  and  _512
REMARK  203  A    between atoms: _512  and  _513
REMARK  204  A    between atoms: _513  and  _514
REMARK  205  A    between atoms: _517  and  _519
REMARK  206  A    between atoms: _519  and  _520
REMARK  207  A    between atoms: _519  and  _522
REMARK  208  A    between atoms: _525  and  _527
REMARK  209  A    between atoms: _527  and  _528
REMARK  210  A    between atoms: _527  and  _530
REMARK  211  A    between atoms: _530  and  _531
REMARK  212  A    between atoms: _535  and  _536
REMARK  213  A    between atoms: _541  and  _543
REMARK  214  A    between atoms: _543  and  _544
REMARK  215  A    between atoms: _543  and  _546
REMARK  216  A    between atoms: _546  and  _547
REMARK  217  A    between atoms: _550  and  _552
REMARK  218  A    between atoms: _552  and  _553
REMARK  219  A    between atoms: _556  and  _558
REMARK  220  A    between atoms: _558  and  _559
REMARK  221  A    between atoms: _558  and  _561
REMARK  222  A    between atoms: _561  and  _562
REMARK  223  A    between atoms: _565  and  _567
REMARK  224  A    between atoms: _567  and  _568
REMARK  225  A    between atoms: _567  and  _570
REMARK  226  A    between atoms: _570  and  _571
REMARK  227  A    between atoms: _573  and  _575
REMARK  228  A    between atoms: _575  and  _576
REMARK  229  A    between atoms: _578  and  _580
REMARK  230  A    between atoms: _580  and  _581
REMARK  231  A    between atoms: _580  and  _583
REMARK  232  A    between atoms: _583  and  _584
REMARK  233  A    between atoms: _587  and  _589
REMARK  234  A    between atoms: _589  and  _590
REMARK  235  A    between atoms: _589  and  _592
REMARK                            x       y       z     vdW  Elec       q    Type
REMARK                         _______ _______ _______ _____ _____    ______ ____
ROOT
ATOM      1  O   HOH     1       4.850  -1.080  11.079  0.00  0.00    +0.000 OA
ENDROOT
TORSDOF 0
REMARK  Name = ../refined-set-2016/4xtv/4xtv_pocket.pdb
REMARK  235 active torsions:
REMARK  status: ('A' for Active; 'I' for Inactive)
REMARK    1  A    between atoms: _1  and  _3
REMARK    2  A    between atoms: _3  and  _4
REMARK    3  A    between atoms: _3  and  _6
REMARK    4  A    between atoms: _6  and  _7
REMARK    5  A    between atoms: _10  and  _12
REMARK    6  A    between atoms: _12  and  _13
REMARK    7  A    between atoms: _15  and  _17
REMARK    8  A    between atoms: _17  and  _18
REMARK    9  A    between atoms: _17  and  _20
REMARK   10  A    between atoms: _20  and  _21
REMARK   11  A    between atoms: _23  and  _25
REMARK   12  A    between atoms: _25  and  _26
REMARK   13  A    between atoms: _25  and  _28
REMARK   14  A    between atoms: _28  and  _29
REMARK   15  A    between atoms: _32  and  _34
REMARK   16  A    between atoms: _34  and  _35
REMARK   17  A    between atoms: _34  and  _37
REMARK   18  A    between atoms: _37  and  _38
REMARK   19  A    between atoms: _43  and  _45
REMARK   20  A    between atoms: _45  and  _46
REMARK   21  A    between atoms: _49  and  _51
REMARK   22  A    between atoms: _51  and  _52
REMARK   23  A    between atoms: _51  and  _54
REMARK   24  A    between atoms: _54  and  _55
REMARK   25  A    between atoms: _58  and  _60
REMARK   26  A    between atoms: _60  and  _61
REMARK   27  A    between atoms: _60  and  _63
REMARK   28  A    between atoms: _63  and  _64
REMARK   29  A    between atoms: _67  and  _69
REMARK   30  A    between atoms: _69  and  _70
REMARK   31  A    between atoms: _69  and  _72
REMARK   32  A    between atoms: _72  and  _73
REMARK   33  A    between atoms: _76  and  _78
REMARK   34  A    between atoms: _78  and  _79
REMARK   35  A    between atoms: _82  and  _84
REMARK   36  A    between atoms: _84  and  _85
REMARK   37  A    between atoms: _84  and  _87
REMARK   38  A    between atoms: _87  and  _88
REMARK   39  A    between atoms: _88  and  _89
REMARK   40  A    between atoms: _94  and  _96
REMARK   41  A    between atoms: _96  and  _97
REMARK   42  A    between atoms: _96  and  _99
REMARK   43  A    between atoms: _99  and  _100
REMARK   44  A    between atoms: _103  and  _105
REMARK   45  A    between atoms: _105  and  _106
REMARK   46  A    between atoms: _109  and  _111
REMARK   47  A    between atoms: _111  and  _112
REMARK   48  A    between atoms: _114  and  _116
REMARK   49  A    between atoms: _116  and  _117
REMARK   50  A    between atoms: _116  and  _119
REMARK   51  A    between atoms: _119  and  _120
REMARK   52  A    between atoms: _120  and  _121
REMARK   53  A    between atoms: _121  and  _122
REMARK   54  A    between atoms: _131  and  _133
REMARK   55  A    between atoms: _133  and  _134
REMARK   56  A    between atoms: _136  and  _138
REMARK   57  A    between atoms: _138  and  _139
REMARK   58  A    between atoms: _138  and  _141
REMARK   59  A    between atoms: _141  and  _142
REMARK   60  A    between atoms: _142  and  _143
REMARK   61  A    between atoms: _143  and  _144
REMARK   62  A    between atoms: _153  and  _155
REMARK   63  A    between atoms: _155  and  _156
REMARK   64  A    between atoms: _155  and  _158
REMARK   65  A    between atoms: _158  and  _159
REMARK   66  A    between atoms: _164  and  _166
REMARK   67  A    between atoms: _166  and  _167
REMARK   68  A    between atoms: _169  and  _171
REMARK   69  A    between atoms: _171  and  _172
REMARK   70  A    between atoms: _171  and  _174
REMARK   71  A    between atoms: _174  and  _175
REMARK   72  A    between atoms: _175  and  _176
REMARK   73  A    between atoms: _176  and  _177
REMARK   74  A    between atoms: _186  and  _188
REMARK   75  A    between atoms: _188  and  _189
REMARK   76  A    between atoms: _191  and  _193
REMARK   77  A    between atoms: _193  and  _194
REMARK   78  A    between atoms: _193  and  _196
REMARK   79  A    between atoms: _196  and  _197
REMARK   80  A    between atoms: _207  and  _209
REMARK   81  A    between atoms: _209  and  _210
REMARK   82  A    between atoms: _213  and  _215
REMARK   83  A    between atoms: _215  and  _216
REMARK   84  A    between atoms: _219  and  _221
REMARK   85  A    between atoms: _221  and  _222
REMARK   86  A    between atoms: _221  and  _224
REMARK   87  A    between atoms: _224  and  _225
REMARK   88  A    between atoms: _228  and  _230
REMARK   89  A    between atoms: _230  and  _231
REMARK   90  A    between atoms: _230  and  _233
REMARK   91  A    between atoms: _233  and  _234
REMARK   92  A    between atoms: _234  and  _235
REMARK   93  A    between atoms: _240  and  _242
REMARK   94  A    between atoms: _242  and  _243
REMARK   95  A    between atoms: _242  and  _245
REMARK   96  A    between atoms: _245  and  _246
REMARK   97  A    between atoms: _249  and  _251
REMARK   98  A    between atoms: _251  and  _252
REMARK   99  A    between atoms: _251  and  _254
REMARK  100  A    between atoms: _254  and  _255
REMARK  101  A    between atoms: _258  and  _260
REMARK  102  A    between atoms: _260  and  _261
REMARK  103  A    between atoms: _260  and  _263
REMARK  104  A    between atoms: _263  and  _264
REMARK  105  A    between atoms: _267  and  _269
REMARK  106  A    between atoms: _269  and  _270
REMARK  107  A    between atoms: _269  and  _272
REMARK  108  A    between atoms: _272  and  _273
REMARK  109  A    between atoms: _275  and  _277
REMARK  110  A    between atoms: _277  and  _278
REMARK  111  A    between atoms: _277  and  _280
REMARK  112  A    between atoms: _283  and  _285
REMARK  113  A    between atoms: _285  and  _286
REMARK  114  A    between atoms: _285  and  _288
REMARK  115  A    between atoms: _288  and  _289
REMARK  116  A    between atoms: _289  and  _290
REMARK  117  A    between atoms: _290  and  _291
REMARK  118  A    between atoms: _291  and  _292
REMARK  119  A    between atoms: _296  and  _298
REMARK  120  A    between atoms: _298  and  _299
REMARK  121  A    between atoms: _298  and  _301
REMARK  122  A    between atoms: _301  and  _302
REMARK  123  A    between atoms: _313  and  _314
REMARK  124  A    between atoms: _319  and  _321
REMARK  125  A    between atoms: _321  and  _322
REMARK  126  A    between atoms: _321  and  _324
REMARK  127  A    between atoms: _324  and  _325
REMARK  128  A    between atoms: _330  and  _332
REMARK  129  A    between atoms: _332  and  _333
REMARK  130  A    between atoms: _332  and  _335
REMARK  131  A    between atoms: _335  and  _336
REMARK  132  A    between atoms: _339  and  _341
REMARK  133  A    between atoms: _341  and  _342
REMARK  134  A    between atoms: _341  and  _344
REMARK  135  A    between atoms: _347  and  _349
REMARK  136  A    between atoms: _349  and  _350
REMARK  137  A    between atoms: _352  and  _354
REMARK  138  A    between atoms: _354  and  _355
REMARK  139  A    between atoms: _354  and  _357
REMARK  140  A    between atoms: _357  and  _358
REMARK  141  A    between atoms: _358  and  _359
REMARK  142  A    between atoms: _359  and  _360
REMARK  143  A    between atoms: _360  and  _361
REMARK  144  A    between atoms: _365  and  _367
REMARK  145  A    between atoms: _367  and  _368
REMARK  146  A    between atoms: _367  and  _370
REMARK  147  A    between atoms: _370  and  _371
REMARK  148  A    between atoms: _374  and  _376
REMARK  149  A    between atoms: _376  and  _377
REMARK  150  A    between atoms: _380  and  _382
REMARK  151  A    between atoms: _382  and  _383
REMARK  152  A    between atoms: _385  and  _387
REMARK  153  A    between atoms: _387  and  _388
REMARK  154  A    between atoms: _387  and  _390
REMARK  155  A    between atoms: _390  and  _391
REMARK  156  A    between atoms: _394  and  _396
REMARK  157  A    between atoms: _396  and  _397
REMARK  158  A    between atoms: _396  and  _399
REMARK  159  A    between atoms: _399  and  _400
REMARK  160  A    between atoms: _403  and  _405
REMARK  161  A    between atoms: _405  and  _406
REMARK  162  A    between atoms: _409  and  _411
REMARK  163  A    between atoms: _411  and  _412
REMARK  164  A    between atoms: _411  and  _414
REMARK  165  A    between atoms: _414  and  _415
REMARK  166  A    between atoms: _415  and  _416
REMARK  167  A    between atoms: _419  and  _421
REMARK  168  A    between atoms: _421  and  _422
REMARK  169  A    between atoms: _421  and  _424
REMARK  170  A    between atoms: _427  and  _429
REMARK  171  A    between atoms: _429  and  _430
REMARK  172  A    between atoms: _429  and  _432
REMARK  173  A    between atoms: _432  and  _433
REMARK  174  A    between atoms: _436  and  _438
REMARK  175  A    between atoms: _438  and  _439
REMARK  176  A    between atoms: _441  and  _443
REMARK  177  A    between atoms: _443  and  _444
REMARK  178  A    between atoms: _443  and  _446
REMARK  179  A    between atoms: _449  and  _451
REMARK  180  A    between atoms: _451  and  _452
REMARK  181  A    between atoms: _454  and  _456
REMARK  182  A    between atoms: _456  and  _457
REMARK  183  A    between atoms: _456  and  _459
REMARK  184  A    between atoms: _459  and  _460
REMARK  185  A    between atoms: _463  and  _465
REMARK  186  A    between atoms: _465  and  _466
REMARK  187  A    between atoms: _465  and  _468
REMARK  188  A    between atoms: _468  and  _469
REMARK  189  A    between atoms: _474  and  _476
REMARK  190  A    between atoms: _476  and  _477
REMARK  191  A    between atoms: _476  and  _479
REMARK  192  A    between atoms: _482  and  _484
REMARK  193  A    between atoms: _484  and  _485
REMARK  194  A    between atoms: _484  and  _487
REMARK  195  A    between atoms: _487  and  _488
REMARK  196  A    between atoms: _488  and  _489
REMARK  197  A    between atoms: _494  and  _496
REMARK  198  A    between atoms: _496  and  _497
REMARK  199  A    between atoms: _501  and  _502
REMARK  200  A    between atoms: _507  and  _509
REMARK  201  A    between atoms: _509  and  _510
REMARK  202  A    between atoms: _509  and  _512
REMARK  203  A    between atoms: _512  and  _513
REMARK  204  A    between atoms: _513  and  _514
REMARK  205  A    between atoms: _517  and  _519
REMARK  206  A    between atoms: _519  and  _520
REMARK  207  A    between atoms: _519  and  _522
REMARK  208  A    between atoms: _525  and  _527
REMARK  209  A    between atoms: _527  and  _528
REMARK  210  A    between atoms: _527  and  _530
REMARK  211  A    between atoms: _530  and  _531
REMARK  212  A    between atoms: _535  and  _536
REMARK  213  A    between atoms: _541  and  _543
REMARK  214  A    between atoms: _543  and  _544
REMARK  215  A    between atoms: _543  and  _546
REMARK  216  A    between atoms: _546  and  _547
REMARK  217  A    between atoms: _550  and  _552
REMARK  218  A    between atoms: _552  and  _553
REMARK  219  A    between atoms: _556  and  _558
REMARK  220  A    between atoms: _558  and  _559
REMARK  221  A    between atoms: _558  and  _561
REMARK  222  A    between atoms: _561  and  _562
REMARK  223  A    between atoms: _565  and  _567
REMARK  224  A    between atoms: _567  and  _568
REMARK  225  A    between atoms: _567  and  _570
REMARK  226  A    between atoms: _570  and  _571
REMARK  227  A    between atoms: _573  and  _575
REMARK  228  A    between atoms: _575  and  _576
REMARK  229  A    between atoms: _578  and  _580
REMARK  230  A    between atoms: _580  and  _581
REMARK  231  A    between atoms: _580  and  _583
REMARK  232  A    between atoms: _583  and  _584
REMARK  233  A    between atoms: _587  and  _589
REMARK  234  A    between atoms: _589  and  _590
REMARK  235  A    between atoms: _589  and  _592
REMARK                            x       y       z     vdW  Elec       q    Type
REMARK                         _______ _______ _______ _____ _____    ______ ____
ROOT
ATOM      1  O   HOH     1       3.342   1.160   9.581  0.00  0.00    +0.000 OA
ENDROOT
TORSDOF 0
REMARK  Name = ../refined-set-2016/4xtv/4xtv_pocket.pdb
REMARK  235 active torsions:
REMARK  status: ('A' for Active; 'I' for Inactive)
REMARK    1  A    between atoms: _1  and  _3
REMARK    2  A    between atoms: _3  and  _4
REMARK    3  A    between atoms: _3  and  _6
REMARK    4  A    between atoms: _6  and  _7
REMARK    5  A    between atoms: _10  and  _12
REMARK    6  A    between atoms: _12  and  _13
REMARK    7  A    between atoms: _15  and  _17
REMARK    8  A    between atoms: _17  and  _18
REMARK    9  A    between atoms: _17  and  _20
REMARK   10  A    between atoms: _20  and  _21
REMARK   11  A    between atoms: _23  and  _25
REMARK   12  A    between atoms: _25  and  _26
REMARK   13  A    between atoms: _25  and  _28
REMARK   14  A    between atoms: _28  and  _29
REMARK   15  A    between atoms: _32  and  _34
REMARK   16  A    between atoms: _34  and  _35
REMARK   17  A    between atoms: _34  and  _37
REMARK   18  A    between atoms: _37  and  _38
REMARK   19  A    between atoms: _43  and  _45
REMARK   20  A    between atoms: _45  and  _46
REMARK   21  A    between atoms: _49  and  _51
REMARK   22  A    between atoms: _51  and  _52
REMARK   23  A    between atoms: _51  and  _54
REMARK   24  A    between atoms: _54  and  _55
REMARK   25  A    between atoms: _58  and  _60
REMARK   26  A    between atoms: _60  and  _61
REMARK   27  A    between atoms: _60  and  _63
REMARK   28  A    between atoms: _63  and  _64
REMARK   29  A    between atoms: _67  and  _69
REMARK   30  A    between atoms: _69  and  _70
REMARK   31  A    between atoms: _69  and  _72
REMARK   32  A    between atoms: _72  and  _73
REMARK   33  A    between atoms: _76  and  _78
REMARK   34  A    between atoms: _78  and  _79
REMARK   35  A    between atoms: _82  and  _84
REMARK   36  A    between atoms: _84  and  _85
REMARK   37  A    between atoms: _84  and  _87
REMARK   38  A    between atoms: _87  and  _88
REMARK   39  A    between atoms: _88  and  _89
REMARK   40  A    between atoms: _94  and  _96
REMARK   41  A    between atoms: _96  and  _97
REMARK   42  A    between atoms: _96  and  _99
REMARK   43  A    between atoms: _99  and  _100
REMARK   44  A    between atoms: _103  and  _105
REMARK   45  A    between atoms: _105  and  _106
REMARK   46  A    between atoms: _109  and  _111
REMARK   47  A    between atoms: _111  and  _112
REMARK   48  A    between atoms: _114  and  _116
REMARK   49  A    between atoms: _116  and  _117
REMARK   50  A    between atoms: _116  and  _119
REMARK   51  A    between atoms: _119  and  _120
REMARK   52  A    between atoms: _120  and  _121
REMARK   53  A    between atoms: _121  and  _122
REMARK   54  A    between atoms: _131  and  _133
REMARK   55  A    between atoms: _133  and  _134
REMARK   56  A    between atoms: _136  and  _138
REMARK   57  A    between atoms: _138  and  _139
REMARK   58  A    between atoms: _138  and  _141
REMARK   59  A    between atoms: _141  and  _142
REMARK   60  A    between atoms: _142  and  _143
REMARK   61  A    between atoms: _143  and  _144
REMARK   62  A    between atoms: _153  and  _155
REMARK   63  A    between atoms: _155  and  _156
REMARK   64  A    between atoms: _155  and  _158
REMARK   65  A    between atoms: _158  and  _159
REMARK   66  A    between atoms: _164  and  _166
REMARK   67  A    between atoms: _166  and  _167
REMARK   68  A    between atoms: _169  and  _171
REMARK   69  A    between atoms: _171  and  _172
REMARK   70  A    between atoms: _171  and  _174
REMARK   71  A    between atoms: _174  and  _175
REMARK   72  A    between atoms: _175  and  _176
REMARK   73  A    between atoms: _176  and  _177
REMARK   74  A    between atoms: _186  and  _188
REMARK   75  A    between atoms: _188  and  _189
REMARK   76  A    between atoms: _191  and  _193
REMARK   77  A    between atoms: _193  and  _194
REMARK   78  A    between atoms: _193  and  _196
REMARK   79  A    between atoms: _196  and  _197
REMARK   80  A    between atoms: _207  and  _209
REMARK   81  A    between atoms: _209  and  _210
REMARK   82  A    between atoms: _213  and  _215
REMARK   83  A    between atoms: _215  and  _216
REMARK   84  A    between atoms: _219  and  _221
REMARK   85  A    between atoms: _221  and  _222
REMARK   86  A    between atoms: _221  and  _224
REMARK   87  A    between atoms: _224  and  _225
REMARK   88  A    between atoms: _228  and  _230
REMARK   89  A    between atoms: _230  and  _231
REMARK   90  A    between atoms: _230  and  _233
REMARK   91  A    between atoms: _233  and  _234
REMARK   92  A    between atoms: _234  and  _235
REMARK   93  A    between atoms: _240  and  _242
REMARK   94  A    between atoms: _242  and  _243
REMARK   95  A    between atoms: _242  and  _245
REMARK   96  A    between atoms: _245  and  _246
REMARK   97  A    between atoms: _249  and  _251
REMARK   98  A    between atoms: _251  and  _252
REMARK   99  A    between atoms: _251  and  _254
REMARK  100  A    between atoms: _254  and  _255
REMARK  101  A    between atoms: _258  and  _260
REMARK  102  A    between atoms: _260  and  _261
REMARK  103  A    between atoms: _260  and  _263
REMARK  104  A    between atoms: _263  and  _264
REMARK  105  A    between atoms: _267  and  _269
REMARK  106  A    between atoms: _269  and  _270
REMARK  107  A    between atoms: _269  and  _272
REMARK  108  A    between atoms: _272  and  _273
REMARK  109  A    between atoms: _275  and  _277
REMARK  110  A    between atoms: _277  and  _278
REMARK  111  A    between atoms: _277  and  _280
REMARK  112  A    between atoms: _283  and  _285
REMARK  113  A    between atoms: _285  and  _286
REMARK  114  A    between atoms: _285  and  _288
REMARK  115  A    between atoms: _288  and  _289
REMARK  116  A    between atoms: _289  and  _290
REMARK  117  A    between atoms: _290  and  _291
REMARK  118  A    between atoms: _291  and  _292
REMARK  119  A    between atoms: _296  and  _298
REMARK  120  A    between atoms: _298  and  _299
REMARK  121  A    between atoms: _298  and  _301
REMARK  122  A    between atoms: _301  and  _302
REMARK  123  A    between atoms: _313  and  _314
REMARK  124  A    between atoms: _319  and  _321
REMARK  125  A    between atoms: _321  and  _322
REMARK  126  A    between atoms: _321  and  _324
REMARK  127  A    between atoms: _324  and  _325
REMARK  128  A    between atoms: _330  and  _332
REMARK  129  A    between atoms: _332  and  _333
REMARK  130  A    between atoms: _332  and  _335
REMARK  131  A    between atoms: _335  and  _336
REMARK  132  A    between atoms: _339  and  _341
REMARK  133  A    between atoms: _341  and  _342
REMARK  134  A    between atoms: _341  and  _344
REMARK  135  A    between atoms: _347  and  _349
REMARK  136  A    between atoms: _349  and  _350
REMARK  137  A    between atoms: _352  and  _354
REMARK  138  A    between atoms: _354  and  _355
REMARK  139  A    between atoms: _354  and  _357
REMARK  140  A    between atoms: _357  and  _358
REMARK  141  A    between atoms: _358  and  _359
REMARK  142  A    between atoms: _359  and  _360
REMARK  143  A    between atoms: _360  and  _361
REMARK  144  A    between atoms: _365  and  _367
REMARK  145  A    between atoms: _367  and  _368
REMARK  146  A    between atoms: _367  and  _370
REMARK  147  A    between atoms: _370  and  _371
REMARK  148  A    between atoms: _374  and  _376
REMARK  149  A    between atoms: _376  and  _377
REMARK  150  A    between atoms: _380  and  _382
REMARK  151  A    between atoms: _382  and  _383
REMARK  152  A    between atoms: _385  and  _387
REMARK  153  A    between atoms: _387  and  _388
REMARK  154  A    between atoms: _387  and  _390
REMARK  155  A    between atoms: _390  and  _391
REMARK  156  A    between atoms: _394  and  _396
REMARK  157  A    between atoms: _396  and  _397
REMARK  158  A    between atoms: _396  and  _399
REMARK  159  A    between atoms: _399  and  _400
REMARK  160  A    between atoms: _403  and  _405
REMARK  161  A    between atoms: _405  and  _406
REMARK  162  A    between atoms: _409  and  _411
REMARK  163  A    between atoms: _411  and  _412
REMARK  164  A    between atoms: _411  and  _414
REMARK  165  A    between atoms: _414  and  _415
REMARK  166  A    between atoms: _415  and  _416
REMARK  167  A    between atoms: _419  and  _421
REMARK  168  A    between atoms: _421  and  _422
REMARK  169  A    between atoms: _421  and  _424
REMARK  170  A    between atoms: _427  and  _429
REMARK  171  A    between atoms: _429  and  _430
REMARK  172  A    between atoms: _429  and  _432
REMARK  173  A    between atoms: _432  and  _433
REMARK  174  A    between atoms: _436  and  _438
REMARK  175  A    between atoms: _438  and  _439
REMARK  176  A    between atoms: _441  and  _443
REMARK  177  A    between atoms: _443  and  _444
REMARK  178  A    between atoms: _443  and  _446
REMARK  179  A    between atoms: _449  and  _451
REMARK  180  A    between atoms: _451  and  _452
REMARK  181  A    between atoms: _454  and  _456
REMARK  182  A    between atoms: _456  and  _457
REMARK  183  A    between atoms: _456  and  _459
REMARK  184  A    between atoms: _459  and  _460
REMARK  185  A    between atoms: _463  and  _465
REMARK  186  A    between atoms: _465  and  _466
REMARK  187  A    between atoms: _465  and  _468
REMARK  188  A    between atoms: _468  and  _469
REMARK  189  A    between atoms: _474  and  _476
REMARK  190  A    between atoms: _476  and  _477
REMARK  191  A    between atoms: _476  and  _479
REMARK  192  A    between atoms: _482  and  _484
REMARK  193  A    between atoms: _484  and  _485
REMARK  194  A    between atoms: _484  and  _487
REMARK  195  A    between atoms: _487  and  _488
REMARK  196  A    between atoms: _488  and  _489
REMARK  197  A    between atoms: _494  and  _496
REMARK  198  A    between atoms: _496  and  _497
REMARK  199  A    between atoms: _501  and  _502
REMARK  200  A    between atoms: _507  and  _509
REMARK  201  A    between atoms: _509  and  _510
REMARK  202  A    between atoms: _509  and  _512
REMARK  203  A    between atoms: _512  and  _513
REMARK  204  A    between atoms: _513  and  _514
REMARK  205  A    between atoms: _517  and  _519
REMARK  206  A    between atoms: _519  and  _520
REMARK  207  A    between atoms: _519  and  _522
REMARK  208  A    between atoms: _525  and  _527
REMARK  209  A    between atoms: _527  and  _528
REMARK  210  A    between atoms: _527  and  _530
REMARK  211  A    between atoms: _530  and  _531
REMARK  212  A    between atoms: _535  and  _536
REMARK  213  A    between atoms: _541  and  _543
REMARK  214  A    between atoms: _543  and  _544
REMARK  215  A    between atoms: _543  and  _546
REMARK  216  A    between atoms: _546  and  _547
REMARK  217  A    between atoms: _550  and  _552
REMARK  218  A    between atoms: _552  and  _553
REMARK  219  A    between atoms: _556  and  _558
REMARK  220  A    between atoms: _558  and  _559
REMARK  221  A    between atoms: _558  and  _561
REMARK  222  A    between atoms: _561  and  _562
REMARK  223  A    between atoms: _565  and  _567
REMARK  224  A    between atoms: _567  and  _568
REMARK  225  A    between atoms: _567  and  _570
REMARK  226  A    between atoms: _570  and  _571
REMARK  227  A    between atoms: _573  and  _575
REMARK  228  A    between atoms: _575  and  _576
REMARK  229  A    between atoms: _578  and  _580
REMARK  230  A    between atoms: _580  and  _581
REMARK  231  A    between atoms: _580  and  _583
REMARK  232  A    between atoms: _583  and  _584
REMARK  233  A    between atoms: _587  and  _589
REMARK  234  A    between atoms: _589  and  _590
REMARK  235  A    between atoms: _589  and  _592
REMARK                            x       y       z     vdW  Elec       q    Type
REMARK                         _______ _______ _______ _____ _____    ______ ____
ROOT
ATOM      1  O   HOH     1      -2.495   6.905  10.749  0.00  0.00    +0.000 OA
ENDROOT
TORSDOF 0
REMARK  Name = ../refined-set-2016/4xtv/4xtv_pocket.pdb
REMARK  235 active torsions:
REMARK  status: ('A' for Active; 'I' for Inactive)
REMARK    1  A    between atoms: _1  and  _3
REMARK    2  A    between atoms: _3  and  _4
REMARK    3  A    between atoms: _3  and  _6
REMARK    4  A    between atoms: _6  and  _7
REMARK    5  A    between atoms: _10  and  _12
REMARK    6  A    between atoms: _12  and  _13
REMARK    7  A    between atoms: _15  and  _17
REMARK    8  A    between atoms: _17  and  _18
REMARK    9  A    between atoms: _17  and  _20
REMARK   10  A    between atoms: _20  and  _21
REMARK   11  A    between atoms: _23  and  _25
REMARK   12  A    between atoms: _25  and  _26
REMARK   13  A    between atoms: _25  and  _28
REMARK   14  A    between atoms: _28  and  _29
REMARK   15  A    between atoms: _32  and  _34
REMARK   16  A    between atoms: _34  and  _35
REMARK   17  A    between atoms: _34  and  _37
REMARK   18  A    between atoms: _37  and  _38
REMARK   19  A    between atoms: _43  and  _45
REMARK   20  A    between atoms: _45  and  _46
REMARK   21  A    between atoms: _49  and  _51
REMARK   22  A    between atoms: _51  and  _52
REMARK   23  A    between atoms: _51  and  _54
REMARK   24  A    between atoms: _54  and  _55
REMARK   25  A    between atoms: _58  and  _60
REMARK   26  A    between atoms: _60  and  _61
REMARK   27  A    between atoms: _60  and  _63
REMARK   28  A    between atoms: _63  and  _64
REMARK   29  A    between atoms: _67  and  _69
REMARK   30  A    between atoms: _69  and  _70
REMARK   31  A    between atoms: _69  and  _72
REMARK   32  A    between atoms: _72  and  _73
REMARK   33  A    between atoms: _76  and  _78
REMARK   34  A    between atoms: _78  and  _79
REMARK   35  A    between atoms: _82  and  _84
REMARK   36  A    between atoms: _84  and  _85
REMARK   37  A    between atoms: _84  and  _87
REMARK   38  A    between atoms: _87  and  _88
REMARK   39  A    between atoms: _88  and  _89
REMARK   40  A    between atoms: _94  and  _96
REMARK   41  A    between atoms: _96  and  _97
REMARK   42  A    between atoms: _96  and  _99
REMARK   43  A    between atoms: _99  and  _100
REMARK   44  A    between atoms: _103  and  _105
REMARK   45  A    between atoms: _105  and  _106
REMARK   46  A    between atoms: _109  and  _111
REMARK   47  A    between atoms: _111  and  _112
REMARK   48  A    between atoms: _114  and  _116
REMARK   49  A    between atoms: _116  and  _117
REMARK   50  A    between atoms: _116  and  _119
REMARK   51  A    between atoms: _119  and  _120
REMARK   52  A    between atoms: _120  and  _121
REMARK   53  A    between atoms: _121  and  _122
REMARK   54  A    between atoms: _131  and  _133
REMARK   55  A    between atoms: _133  and  _134
REMARK   56  A    between atoms: _136  and  _138
REMARK   57  A    between atoms: _138  and  _139
REMARK   58  A    between atoms: _138  and  _141
REMARK   59  A    between atoms: _141  and  _142
REMARK   60  A    between atoms: _142  and  _143
REMARK   61  A    between atoms: _143  and  _144
REMARK   62  A    between atoms: _153  and  _155
REMARK   63  A    between atoms: _155  and  _156
REMARK   64  A    between atoms: _155  and  _158
REMARK   65  A    between atoms: _158  and  _159
REMARK   66  A    between atoms: _164  and  _166
REMARK   67  A    between atoms: _166  and  _167
REMARK   68  A    between atoms: _169  and  _171
REMARK   69  A    between atoms: _171  and  _172
REMARK   70  A    between atoms: _171  and  _174
REMARK   71  A    between atoms: _174  and  _175
REMARK   72  A    between atoms: _175  and  _176
REMARK   73  A    between atoms: _176  and  _177
REMARK   74  A    between atoms: _186  and  _188
REMARK   75  A    between atoms: _188  and  _189
REMARK   76  A    between atoms: _191  and  _193
REMARK   77  A    between atoms: _193  and  _194
REMARK   78  A    between atoms: _193  and  _196
REMARK   79  A    between atoms: _196  and  _197
REMARK   80  A    between atoms: _207  and  _209
REMARK   81  A    between atoms: _209  and  _210
REMARK   82  A    between atoms: _213  and  _215
REMARK   83  A    between atoms: _215  and  _216
REMARK   84  A    between atoms: _219  and  _221
REMARK   85  A    between atoms: _221  and  _222
REMARK   86  A    between atoms: _221  and  _224
REMARK   87  A    between atoms: _224  and  _225
REMARK   88  A    between atoms: _228  and  _230
REMARK   89  A    between atoms: _230  and  _231
REMARK   90  A    between atoms: _230  and  _233
REMARK   91  A    between atoms: _233  and  _234
REMARK   92  A    between atoms: _234  and  _235
REMARK   93  A    between atoms: _240  and  _242
REMARK   94  A    between atoms: _242  and  _243
REMARK   95  A    between atoms: _242  and  _245
REMARK   96  A    between atoms: _245  and  _246
REMARK   97  A    between atoms: _249  and  _251
REMARK   98  A    between atoms: _251  and  _252
REMARK   99  A    between atoms: _251  and  _254
REMARK  100  A    between atoms: _254  and  _255
REMARK  101  A    between atoms: _258  and  _260
REMARK  102  A    between atoms: _260  and  _261
REMARK  103  A    between atoms: _260  and  _263
REMARK  104  A    between atoms: _263  and  _264
REMARK  105  A    between atoms: _267  and  _269
REMARK  106  A    between atoms: _269  and  _270
REMARK  107  A    between atoms: _269  and  _272
REMARK  108  A    between atoms: _272  and  _273
REMARK  109  A    between atoms: _275  and  _277
REMARK  110  A    between atoms: _277  and  _278
REMARK  111  A    between atoms: _277  and  _280
REMARK  112  A    between atoms: _283  and  _285
REMARK  113  A    between atoms: _285  and  _286
REMARK  114  A    between atoms: _285  and  _288
REMARK  115  A    between atoms: _288  and  _289
REMARK  116  A    between atoms: _289  and  _290
REMARK  117  A    between atoms: _290  and  _291
REMARK  118  A    between atoms: _291  and  _292
REMARK  119  A    between atoms: _296  and  _298
REMARK  120  A    between atoms: _298  and  _299
REMARK  121  A    between atoms: _298  and  _301
REMARK  122  A    between atoms: _301  and  _302
REMARK  123  A    between atoms: _313  and  _314
REMARK  124  A    between atoms: _319  and  _321
REMARK  125  A    between atoms: _321  and  _322
REMARK  126  A    between atoms: _321  and  _324
REMARK  127  A    between atoms: _324  and  _325
REMARK  128  A    between atoms: _330  and  _332
REMARK  129  A    between atoms: _332  and  _333
REMARK  130  A    between atoms: _332  and  _335
REMARK  131  A    between atoms: _335  and  _336
REMARK  132  A    between atoms: _339  and  _341
REMARK  133  A    between atoms: _341  and  _342
REMARK  134  A    between atoms: _341  and  _344
REMARK  135  A    between atoms: _347  and  _349
REMARK  136  A    between atoms: _349  and  _350
REMARK  137  A    between atoms: _352  and  _354
REMARK  138  A    between atoms: _354  and  _355
REMARK  139  A    between atoms: _354  and  _357
REMARK  140  A    between atoms: _357  and  _358
REMARK  141  A    between atoms: _358  and  _359
REMARK  142  A    between atoms: _359  and  _360
REMARK  143  A    between atoms: _360  and  _361
REMARK  144  A    between atoms: _365  and  _367
REMARK  145  A    between atoms: _367  and  _368
REMARK  146  A    between atoms: _367  and  _370
REMARK  147  A    between atoms: _370  and  _371
REMARK  148  A    between atoms: _374  and  _376
REMARK  149  A    between atoms: _376  and  _377
REMARK  150  A    between atoms: _380  and  _382
REMARK  151  A    between atoms: _382  and  _383
REMARK  152  A    between atoms: _385  and  _387
REMARK  153  A    between atoms: _387  and  _388
REMARK  154  A    between atoms: _387  and  _390
REMARK  155  A    between atoms: _390  and  _391
REMARK  156  A    between atoms: _394  and  _396
REMARK  157  A    between atoms: _396  and  _397
REMARK  158  A    between atoms: _396  and  _399
REMARK  159  A    between atoms: _399  and  _400
REMARK  160  A    between atoms: _403  and  _405
REMARK  161  A    between atoms: _405  and  _406
REMARK  162  A    between atoms: _409  and  _411
REMARK  163  A    between atoms: _411  and  _412
REMARK  164  A    between atoms: _411  and  _414
REMARK  165  A    between atoms: _414  and  _415
REMARK  166  A    between atoms: _415  and  _416
REMARK  167  A    between atoms: _419  and  _421
REMARK  168  A    between atoms: _421  and  _422
REMARK  169  A    between atoms: _421  and  _424
REMARK  170  A    between atoms: _427  and  _429
REMARK  171  A    between atoms: _429  and  _430
REMARK  172  A    between atoms: _429  and  _432
REMARK  173  A    between atoms: _432  and  _433
REMARK  174  A    between atoms: _436  and  _438
REMARK  175  A    between atoms: _438  and  _439
REMARK  176  A    between atoms: _441  and  _443
REMARK  177  A    between atoms: _443  and  _444
REMARK  178  A    between atoms: _443  and  _446
REMARK  179  A    between atoms: _449  and  _451
REMARK  180  A    between atoms: _451  and  _452
REMARK  181  A    between atoms: _454  and  _456
REMARK  182  A    between atoms: _456  and  _457
REMARK  183  A    between atoms: _456  and  _459
REMARK  184  A    between atoms: _459  and  _460
REMARK  185  A    between atoms: _463  and  _465
REMARK  186  A    between atoms: _465  and  _466
REMARK  187  A    between atoms: _465  and  _468
REMARK  188  A    between atoms: _468  and  _469
REMARK  189  A    between atoms: _474  and  _476
REMARK  190  A    between atoms: _476  and  _477
REMARK  191  A    between atoms: _476  and  _479
REMARK  192  A    between atoms: _482  and  _484
REMARK  193  A    between atoms: _484  and  _485
REMARK  194  A    between atoms: _484  and  _487
REMARK  195  A    between atoms: _487  and  _488
REMARK  196  A    between atoms: _488  and  _489
REMARK  197  A    between atoms: _494  and  _496
REMARK  198  A    between atoms: _496  and  _497
REMARK  199  A    between atoms: _501  and  _502
REMARK  200  A    between atoms: _507  and  _509
REMARK  201  A    between atoms: _509  and  _510
REMARK  202  A    between atoms: _509  and  _512
REMARK  203  A    between atoms: _512  and  _513
REMARK  204  A    between atoms: _513  and  _514
REMARK  205  A    between atoms: _517  and  _519
REMARK  206  A    between atoms: _519  and  _520
REMARK  207  A    between atoms: _519  and  _522
REMARK  208  A    between atoms: _525  and  _527
REMARK  209  A    between atoms: _527  and  _528
REMARK  210  A    between atoms: _527  and  _530
REMARK  211  A    between atoms: _530  and  _531
REMARK  212  A    between atoms: _535  and  _536
REMARK  213  A    between atoms: _541  and  _543
REMARK  214  A    between atoms: _543  and  _544
REMARK  215  A    between atoms: _543  and  _546
REMARK  216  A    between atoms: _546  and  _547
REMARK  217  A    between atoms: _550  and  _552
REMARK  218  A    between atoms: _552  and  _553
REMARK  219  A    between atoms: _556  and  _558
REMARK  220  A    between atoms: _558  and  _559
REMARK  221  A    between atoms: _558  and  _561
REMARK  222  A    between atoms: _561  and  _562
REMARK  223  A    between atoms: _565  and  _567
REMARK  224  A    between atoms: _567  and  _568
REMARK  225  A    between atoms: _567  and  _570
REMARK  226  A    between atoms: _570  and  _571
REMARK  227  A    between atoms: _573  and  _575
REMARK  228  A    between atoms: _575  and  _576
REMARK  229  A    between atoms: _578  and  _580
REMARK  230  A    between atoms: _580  and  _581
REMARK  231  A    between atoms: _580  and  _583
REMARK  232  A    between atoms: _583  and  _584
REMARK  233  A    between atoms: _587  and  _589
REMARK  234  A    between atoms: _589  and  _590
REMARK  235  A    between atoms: _589  and  _592
REMARK                            x       y       z     vdW  Elec       q    Type
REMARK                         _______ _______ _______ _____ _____    ______ ____
ROOT
ATOM      1  O   HOH     1       5.194  -8.190   8.359  0.00  0.00    +0.000 OA
ENDROOT
TORSDOF 0
REMARK  Name = ../refined-set-2016/4xtv/4xtv_pocket.pdb
REMARK  235 active torsions:
REMARK  status: ('A' for Active; 'I' for Inactive)
REMARK    1  A    between atoms: _1  and  _3
REMARK    2  A    between atoms: _3  and  _4
REMARK    3  A    between atoms: _3  and  _6
REMARK    4  A    between atoms: _6  and  _7
REMARK    5  A    between atoms: _10  and  _12
REMARK    6  A    between atoms: _12  and  _13
REMARK    7  A    between atoms: _15  and  _17
REMARK    8  A    between atoms: _17  and  _18
REMARK    9  A    between atoms: _17  and  _20
REMARK   10  A    between atoms: _20  and  _21
REMARK   11  A    between atoms: _23  and  _25
REMARK   12  A    between atoms: _25  and  _26
REMARK   13  A    between atoms: _25  and  _28
REMARK   14  A    between atoms: _28  and  _29
REMARK   15  A    between atoms: _32  and  _34
REMARK   16  A    between atoms: _34  and  _35
REMARK   17  A    between atoms: _34  and  _37
REMARK   18  A    between atoms: _37  and  _38
REMARK   19  A    between atoms: _43  and  _45
REMARK   20  A    between atoms: _45  and  _46
REMARK   21  A    between atoms: _49  and  _51
REMARK   22  A    between atoms: _51  and  _52
REMARK   23  A    between atoms: _51  and  _54
REMARK   24  A    between atoms: _54  and  _55
REMARK   25  A    between atoms: _58  and  _60
REMARK   26  A    between atoms: _60  and  _61
REMARK   27  A    between atoms: _60  and  _63
REMARK   28  A    between atoms: _63  and  _64
REMARK   29  A    between atoms: _67  and  _69
REMARK   30  A    between atoms: _69  and  _70
REMARK   31  A    between atoms: _69  and  _72
REMARK   32  A    between atoms: _72  and  _73
REMARK   33  A    between atoms: _76  and  _78
REMARK   34  A    between atoms: _78  and  _79
REMARK   35  A    between atoms: _82  and  _84
REMARK   36  A    between atoms: _84  and  _85
REMARK   37  A    between atoms: _84  and  _87
REMARK   38  A    between atoms: _87  and  _88
REMARK   39  A    between atoms: _88  and  _89
REMARK   40  A    between atoms: _94  and  _96
REMARK   41  A    between atoms: _96  and  _97
REMARK   42  A    between atoms: _96  and  _99
REMARK   43  A    between atoms: _99  and  _100
REMARK   44  A    between atoms: _103  and  _105
REMARK   45  A    between atoms: _105  and  _106
REMARK   46  A    between atoms: _109  and  _111
REMARK   47  A    between atoms: _111  and  _112
REMARK   48  A    between atoms: _114  and  _116
REMARK   49  A    between atoms: _116  and  _117
REMARK   50  A    between atoms: _116  and  _119
REMARK   51  A    between atoms: _119  and  _120
REMARK   52  A    between atoms: _120  and  _121
REMARK   53  A    between atoms: _121  and  _122
REMARK   54  A    between atoms: _131  and  _133
REMARK   55  A    between atoms: _133  and  _134
REMARK   56  A    between atoms: _136  and  _138
REMARK   57  A    between atoms: _138  and  _139
REMARK   58  A    between atoms: _138  and  _141
REMARK   59  A    between atoms: _141  and  _142
REMARK   60  A    between atoms: _142  and  _143
REMARK   61  A    between atoms: _143  and  _144
REMARK   62  A    between atoms: _153  and  _155
REMARK   63  A    between atoms: _155  and  _156
REMARK   64  A    between atoms: _155  and  _158
REMARK   65  A    between atoms: _158  and  _159
REMARK   66  A    between atoms: _164  and  _166
REMARK   67  A    between atoms: _166  and  _167
REMARK   68  A    between atoms: _169  and  _171
REMARK   69  A    between atoms: _171  and  _172
REMARK   70  A    between atoms: _171  and  _174
REMARK   71  A    between atoms: _174  and  _175
REMARK   72  A    between atoms: _175  and  _176
REMARK   73  A    between atoms: _176  and  _177
REMARK   74  A    between atoms: _186  and  _188
REMARK   75  A    between atoms: _188  and  _189
REMARK   76  A    between atoms: _191  and  _193
REMARK   77  A    between atoms: _193  and  _194
REMARK   78  A    between atoms: _193  and  _196
REMARK   79  A    between atoms: _196  and  _197
REMARK   80  A    between atoms: _207  and  _209
REMARK   81  A    between atoms: _209  and  _210
REMARK   82  A    between atoms: _213  and  _215
REMARK   83  A    between atoms: _215  and  _216
REMARK   84  A    between atoms: _219  and  _221
REMARK   85  A    between atoms: _221  and  _222
REMARK   86  A    between atoms: _221  and  _224
REMARK   87  A    between atoms: _224  and  _225
REMARK   88  A    between atoms: _228  and  _230
REMARK   89  A    between atoms: _230  and  _231
REMARK   90  A    between atoms: _230  and  _233
REMARK   91  A    between atoms: _233  and  _234
REMARK   92  A    between atoms: _234  and  _235
REMARK   93  A    between atoms: _240  and  _242
REMARK   94  A    between atoms: _242  and  _243
REMARK   95  A    between atoms: _242  and  _245
REMARK   96  A    between atoms: _245  and  _246
REMARK   97  A    between atoms: _249  and  _251
REMARK   98  A    between atoms: _251  and  _252
REMARK   99  A    between atoms: _251  and  _254
REMARK  100  A    between atoms: _254  and  _255
REMARK  101  A    between atoms: _258  and  _260
REMARK  102  A    between atoms: _260  and  _261
REMARK  103  A    between atoms: _260  and  _263
REMARK  104  A    between atoms: _263  and  _264
REMARK  105  A    between atoms: _267  and  _269
REMARK  106  A    between atoms: _269  and  _270
REMARK  107  A    between atoms: _269  and  _272
REMARK  108  A    between atoms: _272  and  _273
REMARK  109  A    between atoms: _275  and  _277
REMARK  110  A    between atoms: _277  and  _278
REMARK  111  A    between atoms: _277  and  _280
REMARK  112  A    between atoms: _283  and  _285
REMARK  113  A    between atoms: _285  and  _286
REMARK  114  A    between atoms: _285  and  _288
REMARK  115  A    between atoms: _288  and  _289
REMARK  116  A    between atoms: _289  and  _290
REMARK  117  A    between atoms: _290  and  _291
REMARK  118  A    between atoms: _291  and  _292
REMARK  119  A    between atoms: _296  and  _298
REMARK  120  A    between atoms: _298  and  _299
REMARK  121  A    between atoms: _298  and  _301
REMARK  122  A    between atoms: _301  and  _302
REMARK  123  A    between atoms: _313  and  _314
REMARK  124  A    between atoms: _319  and  _321
REMARK  125  A    between atoms: _321  and  _322
REMARK  126  A    between atoms: _321  and  _324
REMARK  127  A    between atoms: _324  and  _325
REMARK  128  A    between atoms: _330  and  _332
REMARK  129  A    between atoms: _332  and  _333
REMARK  130  A    between atoms: _332  and  _335
REMARK  131  A    between atoms: _335  and  _336
REMARK  132  A    between atoms: _339  and  _341
REMARK  133  A    between atoms: _341  and  _342
REMARK  134  A    between atoms: _341  and  _344
REMARK  135  A    between atoms: _347  and  _349
REMARK  136  A    between atoms: _349  and  _350
REMARK  137  A    between atoms: _352  and  _354
REMARK  138  A    between atoms: _354  and  _355
REMARK  139  A    between atoms: _354  and  _357
REMARK  140  A    between atoms: _357  and  _358
REMARK  141  A    between atoms: _358  and  _359
REMARK  142  A    between atoms: _359  and  _360
REMARK  143  A    between atoms: _360  and  _361
REMARK  144  A    between atoms: _365  and  _367
REMARK  145  A    between atoms: _367  and  _368
REMARK  146  A    between atoms: _367  and  _370
REMARK  147  A    between atoms: _370  and  _371
REMARK  148  A    between atoms: _374  and  _376
REMARK  149  A    between atoms: _376  and  _377
REMARK  150  A    between atoms: _380  and  _382
REMARK  151  A    between atoms: _382  and  _383
REMARK  152  A    between atoms: _385  and  _387
REMARK  153  A    between atoms: _387  and  _388
REMARK  154  A    between atoms: _387  and  _390
REMARK  155  A    between atoms: _390  and  _391
REMARK  156  A    between atoms: _394  and  _396
REMARK  157  A    between atoms: _396  and  _397
REMARK  158  A    between atoms: _396  and  _399
REMARK  159  A    between atoms: _399  and  _400
REMARK  160  A    between atoms: _403  and  _405
REMARK  161  A    between atoms: _405  and  _406
REMARK  162  A    between atoms: _409  and  _411
REMARK  163  A    between atoms: _411  and  _412
REMARK  164  A    between atoms: _411  and  _414
REMARK  165  A    between atoms: _414  and  _415
REMARK  166  A    between atoms: _415  and  _416
REMARK  167  A    between atoms: _419  and  _421
REMARK  168  A    between atoms: _421  and  _422
REMARK  169  A    between atoms: _421  and  _424
REMARK  170  A    between atoms: _427  and  _429
REMARK  171  A    between atoms: _429  and  _430
REMARK  172  A    between atoms: _429  and  _432
REMARK  173  A    between atoms: _432  and  _433
REMARK  174  A    between atoms: _436  and  _438
REMARK  175  A    between atoms: _438  and  _439
REMARK  176  A    between atoms: _441  and  _443
REMARK  177  A    between atoms: _443  and  _444
REMARK  178  A    between atoms: _443  and  _446
REMARK  179  A    between atoms: _449  and  _451
REMARK  180  A    between atoms: _451  and  _452
REMARK  181  A    between atoms: _454  and  _456
REMARK  182  A    between atoms: _456  and  _457
REMARK  183  A    between atoms: _456  and  _459
REMARK  184  A    between atoms: _459  and  _460
REMARK  185  A    between atoms: _463  and  _465
REMARK  186  A    between atoms: _465  and  _466
REMARK  187  A    between atoms: _465  and  _468
REMARK  188  A    between atoms: _468  and  _469
REMARK  189  A    between atoms: _474  and  _476
REMARK  190  A    between atoms: _476  and  _477
REMARK  191  A    between atoms: _476  and  _479
REMARK  192  A    between atoms: _482  and  _484
REMARK  193  A    between atoms: _484  and  _485
REMARK  194  A    between atoms: _484  and  _487
REMARK  195  A    between atoms: _487  and  _488
REMARK  196  A    between atoms: _488  and  _489
REMARK  197  A    between atoms: _494  and  _496
REMARK  198  A    between atoms: _496  and  _497
REMARK  199  A    between atoms: _501  and  _502
REMARK  200  A    between atoms: _507  and  _509
REMARK  201  A    between atoms: _509  and  _510
REMARK  202  A    between atoms: _509  and  _512
REMARK  203  A    between atoms: _512  and  _513
REMARK  204  A    between atoms: _513  and  _514
REMARK  205  A    between atoms: _517  and  _519
REMARK  206  A    between atoms: _519  and  _520
REMARK  207  A    between atoms: _519  and  _522
REMARK  208  A    between atoms: _525  and  _527
REMARK  209  A    between atoms: _527  and  _528
REMARK  210  A    between atoms: _527  and  _530
REMARK  211  A    between atoms: _530  and  _531
REMARK  212  A    between atoms: _535  and  _536
REMARK  213  A    between atoms: _541  and  _543
REMARK  214  A    between atoms: _543  and  _544
REMARK  215  A    between atoms: _543  and  _546
REMARK  216  A    between atoms: _546  and  _547
REMARK  217  A    between atoms: _550  and  _552
REMARK  218  A    between atoms: _552  and  _553
REMARK  219  A    between atoms: _556  and  _558
REMARK  220  A    between atoms: _558  and  _559
REMARK  221  A    between atoms: _558  and  _561
REMARK  222  A    between atoms: _561  and  _562
REMARK  223  A    between atoms: _565  and  _567
REMARK  224  A    between atoms: _567  and  _568
REMARK  225  A    between atoms: _567  and  _570
REMARK  226  A    between atoms: _570  and  _571
REMARK  227  A    between atoms: _573  and  _575
REMARK  228  A    between atoms: _575  and  _576
REMARK  229  A    between atoms: _578  and  _580
REMARK  230  A    between atoms: _580  and  _581
REMARK  231  A    between atoms: _580  and  _583
REMARK  232  A    between atoms: _583  and  _584
REMARK  233  A    between atoms: _587  and  _589
REMARK  234  A    between atoms: _589  and  _590
REMARK  235  A    between atoms: _589  and  _592
REMARK                            x       y       z     vdW  Elec       q    Type
REMARK                         _______ _______ _______ _____ _____    ______ ____
ROOT
ATOM      1  O   HOH     1       0.419   4.181  13.533  0.00  0.00    +0.000 OA
ENDROOT
TORSDOF 0
REMARK  Name = ../refined-set-2016/4xtv/4xtv_pocket.pdb
REMARK  235 active torsions:
REMARK  status: ('A' for Active; 'I' for Inactive)
REMARK    1  A    between atoms: _1  and  _3
REMARK    2  A    between atoms: _3  and  _4
REMARK    3  A    between atoms: _3  and  _6
REMARK    4  A    between atoms: _6  and  _7
REMARK    5  A    between atoms: _10  and  _12
REMARK    6  A    between atoms: _12  and  _13
REMARK    7  A    between atoms: _15  and  _17
REMARK    8  A    between atoms: _17  and  _18
REMARK    9  A    between atoms: _17  and  _20
REMARK   10  A    between atoms: _20  and  _21
REMARK   11  A    between atoms: _23  and  _25
REMARK   12  A    between atoms: _25  and  _26
REMARK   13  A    between atoms: _25  and  _28
REMARK   14  A    between atoms: _28  and  _29
REMARK   15  A    between atoms: _32  and  _34
REMARK   16  A    between atoms: _34  and  _35
REMARK   17  A    between atoms: _34  and  _37
REMARK   18  A    between atoms: _37  and  _38
REMARK   19  A    between atoms: _43  and  _45
REMARK   20  A    between atoms: _45  and  _46
REMARK   21  A    between atoms: _49  and  _51
REMARK   22  A    between atoms: _51  and  _52
REMARK   23  A    between atoms: _51  and  _54
REMARK   24  A    between atoms: _54  and  _55
REMARK   25  A    between atoms: _58  and  _60
REMARK   26  A    between atoms: _60  and  _61
REMARK   27  A    between atoms: _60  and  _63
REMARK   28  A    between atoms: _63  and  _64
REMARK   29  A    between atoms: _67  and  _69
REMARK   30  A    between atoms: _69  and  _70
REMARK   31  A    between atoms: _69  and  _72
REMARK   32  A    between atoms: _72  and  _73
REMARK   33  A    between atoms: _76  and  _78
REMARK   34  A    between atoms: _78  and  _79
REMARK   35  A    between atoms: _82  and  _84
REMARK   36  A    between atoms: _84  and  _85
REMARK   37  A    between atoms: _84  and  _87
REMARK   38  A    between atoms: _87  and  _88
REMARK   39  A    between atoms: _88  and  _89
REMARK   40  A    between atoms: _94  and  _96
REMARK   41  A    between atoms: _96  and  _97
REMARK   42  A    between atoms: _96  and  _99
REMARK   43  A    between atoms: _99  and  _100
REMARK   44  A    between atoms: _103  and  _105
REMARK   45  A    between atoms: _105  and  _106
REMARK   46  A    between atoms: _109  and  _111
REMARK   47  A    between atoms: _111  and  _112
REMARK   48  A    between atoms: _114  and  _116
REMARK   49  A    between atoms: _116  and  _117
REMARK   50  A    between atoms: _116  and  _119
REMARK   51  A    between atoms: _119  and  _120
REMARK   52  A    between atoms: _120  and  _121
REMARK   53  A    between atoms: _121  and  _122
REMARK   54  A    between atoms: _131  and  _133
REMARK   55  A    between atoms: _133  and  _134
REMARK   56  A    between atoms: _136  and  _138
REMARK   57  A    between atoms: _138  and  _139
REMARK   58  A    between atoms: _138  and  _141
REMARK   59  A    between atoms: _141  and  _142
REMARK   60  A    between atoms: _142  and  _143
REMARK   61  A    between atoms: _143  and  _144
REMARK   62  A    between atoms: _153  and  _155
REMARK   63  A    between atoms: _155  and  _156
REMARK   64  A    between atoms: _155  and  _158
REMARK   65  A    between atoms: _158  and  _159
REMARK   66  A    between atoms: _164  and  _166
REMARK   67  A    between atoms: _166  and  _167
REMARK   68  A    between atoms: _169  and  _171
REMARK   69  A    between atoms: _171  and  _172
REMARK   70  A    between atoms: _171  and  _174
REMARK   71  A    between atoms: _174  and  _175
REMARK   72  A    between atoms: _175  and  _176
REMARK   73  A    between atoms: _176  and  _177
REMARK   74  A    between atoms: _186  and  _188
REMARK   75  A    between atoms: _188  and  _189
REMARK   76  A    between atoms: _191  and  _193
REMARK   77  A    between atoms: _193  and  _194
REMARK   78  A    between atoms: _193  and  _196
REMARK   79  A    between atoms: _196  and  _197
REMARK   80  A    between atoms: _207  and  _209
REMARK   81  A    between atoms: _209  and  _210
REMARK   82  A    between atoms: _213  and  _215
REMARK   83  A    between atoms: _215  and  _216
REMARK   84  A    between atoms: _219  and  _221
REMARK   85  A    between atoms: _221  and  _222
REMARK   86  A    between atoms: _221  and  _224
REMARK   87  A    between atoms: _224  and  _225
REMARK   88  A    between atoms: _228  and  _230
REMARK   89  A    between atoms: _230  and  _231
REMARK   90  A    between atoms: _230  and  _233
REMARK   91  A    between atoms: _233  and  _234
REMARK   92  A    between atoms: _234  and  _235
REMARK   93  A    between atoms: _240  and  _242
REMARK   94  A    between atoms: _242  and  _243
REMARK   95  A    between atoms: _242  and  _245
REMARK   96  A    between atoms: _245  and  _246
REMARK   97  A    between atoms: _249  and  _251
REMARK   98  A    between atoms: _251  and  _252
REMARK   99  A    between atoms: _251  and  _254
REMARK  100  A    between atoms: _254  and  _255
REMARK  101  A    between atoms: _258  and  _260
REMARK  102  A    between atoms: _260  and  _261
REMARK  103  A    between atoms: _260  and  _263
REMARK  104  A    between atoms: _263  and  _264
REMARK  105  A    between atoms: _267  and  _269
REMARK  106  A    between atoms: _269  and  _270
REMARK  107  A    between atoms: _269  and  _272
REMARK  108  A    between atoms: _272  and  _273
REMARK  109  A    between atoms: _275  and  _277
REMARK  110  A    between atoms: _277  and  _278
REMARK  111  A    between atoms: _277  and  _280
REMARK  112  A    between atoms: _283  and  _285
REMARK  113  A    between atoms: _285  and  _286
REMARK  114  A    between atoms: _285  and  _288
REMARK  115  A    between atoms: _288  and  _289
REMARK  116  A    between atoms: _289  and  _290
REMARK  117  A    between atoms: _290  and  _291
REMARK  118  A    between atoms: _291  and  _292
REMARK  119  A    between atoms: _296  and  _298
REMARK  120  A    between atoms: _298  and  _299
REMARK  121  A    between atoms: _298  and  _301
REMARK  122  A    between atoms: _301  and  _302
REMARK  123  A    between atoms: _313  and  _314
REMARK  124  A    between atoms: _319  and  _321
REMARK  125  A    between atoms: _321  and  _322
REMARK  126  A    between atoms: _321  and  _324
REMARK  127  A    between atoms: _324  and  _325
REMARK  128  A    between atoms: _330  and  _332
REMARK  129  A    between atoms: _332  and  _333
REMARK  130  A    between atoms: _332  and  _335
REMARK  131  A    between atoms: _335  and  _336
REMARK  132  A    between atoms: _339  and  _341
REMARK  133  A    between atoms: _341  and  _342
REMARK  134  A    between atoms: _341  and  _344
REMARK  135  A    between atoms: _347  and  _349
REMARK  136  A    between atoms: _349  and  _350
REMARK  137  A    between atoms: _352  and  _354
REMARK  138  A    between atoms: _354  and  _355
REMARK  139  A    between atoms: _354  and  _357
REMARK  140  A    between atoms: _357  and  _358
REMARK  141  A    between atoms: _358  and  _359
REMARK  142  A    between atoms: _359  and  _360
REMARK  143  A    between atoms: _360  and  _361
REMARK  144  A    between atoms: _365  and  _367
REMARK  145  A    between atoms: _367  and  _368
REMARK  146  A    between atoms: _367  and  _370
REMARK  147  A    between atoms: _370  and  _371
REMARK  148  A    between atoms: _374  and  _376
REMARK  149  A    between atoms: _376  and  _377
REMARK  150  A    between atoms: _380  and  _382
REMARK  151  A    between atoms: _382  and  _383
REMARK  152  A    between atoms: _385  and  _387
REMARK  153  A    between atoms: _387  and  _388
REMARK  154  A    between atoms: _387  and  _390
REMARK  155  A    between atoms: _390  and  _391
REMARK  156  A    between atoms: _394  and  _396
REMARK  157  A    between atoms: _396  and  _397
REMARK  158  A    between atoms: _396  and  _399
REMARK  159  A    between atoms: _399  and  _400
REMARK  160  A    between atoms: _403  and  _405
REMARK  161  A    between atoms: _405  and  _406
REMARK  162  A    between atoms: _409  and  _411
REMARK  163  A    between atoms: _411  and  _412
REMARK  164  A    between atoms: _411  and  _414
REMARK  165  A    between atoms: _414  and  _415
REMARK  166  A    between atoms: _415  and  _416
REMARK  167  A    between atoms: _419  and  _421
REMARK  168  A    between atoms: _421  and  _422
REMARK  169  A    between atoms: _421  and  _424
REMARK  170  A    between atoms: _427  and  _429
REMARK  171  A    between atoms: _429  and  _430
REMARK  172  A    between atoms: _429  and  _432
REMARK  173  A    between atoms: _432  and  _433
REMARK  174  A    between atoms: _436  and  _438
REMARK  175  A    between atoms: _438  and  _439
REMARK  176  A    between atoms: _441  and  _443
REMARK  177  A    between atoms: _443  and  _444
REMARK  178  A    between atoms: _443  and  _446
REMARK  179  A    between atoms: _449  and  _451
REMARK  180  A    between atoms: _451  and  _452
REMARK  181  A    between atoms: _454  and  _456
REMARK  182  A    between atoms: _456  and  _457
REMARK  183  A    between atoms: _456  and  _459
REMARK  184  A    between atoms: _459  and  _460
REMARK  185  A    between atoms: _463  and  _465
REMARK  186  A    between atoms: _465  and  _466
REMARK  187  A    between atoms: _465  and  _468
REMARK  188  A    between atoms: _468  and  _469
REMARK  189  A    between atoms: _474  and  _476
REMARK  190  A    between atoms: _476  and  _477
REMARK  191  A    between atoms: _476  and  _479
REMARK  192  A    between atoms: _482  and  _484
REMARK  193  A    between atoms: _484  and  _485
REMARK  194  A    between atoms: _484  and  _487
REMARK  195  A    between atoms: _487  and  _488
REMARK  196  A    between atoms: _488  and  _489
REMARK  197  A    between atoms: _494  and  _496
REMARK  198  A    between atoms: _496  and  _497
REMARK  199  A    between atoms: _501  and  _502
REMARK  200  A    between atoms: _507  and  _509
REMARK  201  A    between atoms: _509  and  _510
REMARK  202  A    between atoms: _509  and  _512
REMARK  203  A    between atoms: _512  and  _513
REMARK  204  A    between atoms: _513  and  _514
REMARK  205  A    between atoms: _517  and  _519
REMARK  206  A    between atoms: _519  and  _520
REMARK  207  A    between atoms: _519  and  _522
REMARK  208  A    between atoms: _525  and  _527
REMARK  209  A    between atoms: _527  and  _528
REMARK  210  A    between atoms: _527  and  _530
REMARK  211  A    between atoms: _530  and  _531
REMARK  212  A    between atoms: _535  and  _536
REMARK  213  A    between atoms: _541  and  _543
REMARK  214  A    between atoms: _543  and  _544
REMARK  215  A    between atoms: _543  and  _546
REMARK  216  A    between atoms: _546  and  _547
REMARK  217  A    between atoms: _550  and  _552
REMARK  218  A    between atoms: _552  and  _553
REMARK  219  A    between atoms: _556  and  _558
REMARK  220  A    between atoms: _558  and  _559
REMARK  221  A    between atoms: _558  and  _561
REMARK  222  A    between atoms: _561  and  _562
REMARK  223  A    between atoms: _565  and  _567
REMARK  224  A    between atoms: _567  and  _568
REMARK  225  A    between atoms: _567  and  _570
REMARK  226  A    between atoms: _570  and  _571
REMARK  227  A    between atoms: _573  and  _575
REMARK  228  A    between atoms: _575  and  _576
REMARK  229  A    between atoms: _578  and  _580
REMARK  230  A    between atoms: _580  and  _581
REMARK  231  A    between atoms: _580  and  _583
REMARK  232  A    between atoms: _583  and  _584
REMARK  233  A    between atoms: _587  and  _589
REMARK  234  A    between atoms: _589  and  _590
REMARK  235  A    between atoms: _589  and  _592
REMARK                            x       y       z     vdW  Elec       q    Type
REMARK                         _______ _______ _______ _____ _____    ______ ____
ROOT
ATOM      1  O   HOH     1      -1.593 -11.653   3.164  0.00  0.00    +0.000 OA
ENDROOT
TORSDOF 0
REMARK  Name = ../refined-set-2016/4xtv/4xtv_pocket.pdb
REMARK  235 active torsions:
REMARK  status: ('A' for Active; 'I' for Inactive)
REMARK    1  A    between atoms: _1  and  _3
REMARK    2  A    between atoms: _3  and  _4
REMARK    3  A    between atoms: _3  and  _6
REMARK    4  A    between atoms: _6  and  _7
REMARK    5  A    between atoms: _10  and  _12
REMARK    6  A    between atoms: _12  and  _13
REMARK    7  A    between atoms: _15  and  _17
REMARK    8  A    between atoms: _17  and  _18
REMARK    9  A    between atoms: _17  and  _20
REMARK   10  A    between atoms: _20  and  _21
REMARK   11  A    between atoms: _23  and  _25
REMARK   12  A    between atoms: _25  and  _26
REMARK   13  A    between atoms: _25  and  _28
REMARK   14  A    between atoms: _28  and  _29
REMARK   15  A    between atoms: _32  and  _34
REMARK   16  A    between atoms: _34  and  _35
REMARK   17  A    between atoms: _34  and  _37
REMARK   18  A    between atoms: _37  and  _38
REMARK   19  A    between atoms: _43  and  _45
REMARK   20  A    between atoms: _45  and  _46
REMARK   21  A    between atoms: _49  and  _51
REMARK   22  A    between atoms: _51  and  _52
REMARK   23  A    between atoms: _51  and  _54
REMARK   24  A    between atoms: _54  and  _55
REMARK   25  A    between atoms: _58  and  _60
REMARK   26  A    between atoms: _60  and  _61
REMARK   27  A    between atoms: _60  and  _63
REMARK   28  A    between atoms: _63  and  _64
REMARK   29  A    between atoms: _67  and  _69
REMARK   30  A    between atoms: _69  and  _70
REMARK   31  A    between atoms: _69  and  _72
REMARK   32  A    between atoms: _72  and  _73
REMARK   33  A    between atoms: _76  and  _78
REMARK   34  A    between atoms: _78  and  _79
REMARK   35  A    between atoms: _82  and  _84
REMARK   36  A    between atoms: _84  and  _85
REMARK   37  A    between atoms: _84  and  _87
REMARK   38  A    between atoms: _87  and  _88
REMARK   39  A    between atoms: _88  and  _89
REMARK   40  A    between atoms: _94  and  _96
REMARK   41  A    between atoms: _96  and  _97
REMARK   42  A    between atoms: _96  and  _99
REMARK   43  A    between atoms: _99  and  _100
REMARK   44  A    between atoms: _103  and  _105
REMARK   45  A    between atoms: _105  and  _106
REMARK   46  A    between atoms: _109  and  _111
REMARK   47  A    between atoms: _111  and  _112
REMARK   48  A    between atoms: _114  and  _116
REMARK   49  A    between atoms: _116  and  _117
REMARK   50  A    between atoms: _116  and  _119
REMARK   51  A    between atoms: _119  and  _120
REMARK   52  A    between atoms: _120  and  _121
REMARK   53  A    between atoms: _121  and  _122
REMARK   54  A    between atoms: _131  and  _133
REMARK   55  A    between atoms: _133  and  _134
REMARK   56  A    between atoms: _136  and  _138
REMARK   57  A    between atoms: _138  and  _139
REMARK   58  A    between atoms: _138  and  _141
REMARK   59  A    between atoms: _141  and  _142
REMARK   60  A    between atoms: _142  and  _143
REMARK   61  A    between atoms: _143  and  _144
REMARK   62  A    between atoms: _153  and  _155
REMARK   63  A    between atoms: _155  and  _156
REMARK   64  A    between atoms: _155  and  _158
REMARK   65  A    between atoms: _158  and  _159
REMARK   66  A    between atoms: _164  and  _166
REMARK   67  A    between atoms: _166  and  _167
REMARK   68  A    between atoms: _169  and  _171
REMARK   69  A    between atoms: _171  and  _172
REMARK   70  A    between atoms: _171  and  _174
REMARK   71  A    between atoms: _174  and  _175
REMARK   72  A    between atoms: _175  and  _176
REMARK   73  A    between atoms: _176  and  _177
REMARK   74  A    between atoms: _186  and  _188
REMARK   75  A    between atoms: _188  and  _189
REMARK   76  A    between atoms: _191  and  _193
REMARK   77  A    between atoms: _193  and  _194
REMARK   78  A    between atoms: _193  and  _196
REMARK   79  A    between atoms: _196  and  _197
REMARK   80  A    between atoms: _207  and  _209
REMARK   81  A    between atoms: _209  and  _210
REMARK   82  A    between atoms: _213  and  _215
REMARK   83  A    between atoms: _215  and  _216
REMARK   84  A    between atoms: _219  and  _221
REMARK   85  A    between atoms: _221  and  _222
REMARK   86  A    between atoms: _221  and  _224
REMARK   87  A    between atoms: _224  and  _225
REMARK   88  A    between atoms: _228  and  _230
REMARK   89  A    between atoms: _230  and  _231
REMARK   90  A    between atoms: _230  and  _233
REMARK   91  A    between atoms: _233  and  _234
REMARK   92  A    between atoms: _234  and  _235
REMARK   93  A    between atoms: _240  and  _242
REMARK   94  A    between atoms: _242  and  _243
REMARK   95  A    between atoms: _242  and  _245
REMARK   96  A    between atoms: _245  and  _246
REMARK   97  A    between atoms: _249  and  _251
REMARK   98  A    between atoms: _251  and  _252
REMARK   99  A    between atoms: _251  and  _254
REMARK  100  A    between atoms: _254  and  _255
REMARK  101  A    between atoms: _258  and  _260
REMARK  102  A    between atoms: _260  and  _261
REMARK  103  A    between atoms: _260  and  _263
REMARK  104  A    between atoms: _263  and  _264
REMARK  105  A    between atoms: _267  and  _269
REMARK  106  A    between atoms: _269  and  _270
REMARK  107  A    between atoms: _269  and  _272
REMARK  108  A    between atoms: _272  and  _273
REMARK  109  A    between atoms: _275  and  _277
REMARK  110  A    between atoms: _277  and  _278
REMARK  111  A    between atoms: _277  and  _280
REMARK  112  A    between atoms: _283  and  _285
REMARK  113  A    between atoms: _285  and  _286
REMARK  114  A    between atoms: _285  and  _288
REMARK  115  A    between atoms: _288  and  _289
REMARK  116  A    between atoms: _289  and  _290
REMARK  117  A    between atoms: _290  and  _291
REMARK  118  A    between atoms: _291  and  _292
REMARK  119  A    between atoms: _296  and  _298
REMARK  120  A    between atoms: _298  and  _299
REMARK  121  A    between atoms: _298  and  _301
REMARK  122  A    between atoms: _301  and  _302
REMARK  123  A    between atoms: _313  and  _314
REMARK  124  A    between atoms: _319  and  _321
REMARK  125  A    between atoms: _321  and  _322
REMARK  126  A    between atoms: _321  and  _324
REMARK  127  A    between atoms: _324  and  _325
REMARK  128  A    between atoms: _330  and  _332
REMARK  129  A    between atoms: _332  and  _333
REMARK  130  A    between atoms: _332  and  _335
REMARK  131  A    between atoms: _335  and  _336
REMARK  132  A    between atoms: _339  and  _341
REMARK  133  A    between atoms: _341  and  _342
REMARK  134  A    between atoms: _341  and  _344
REMARK  135  A    between atoms: _347  and  _349
REMARK  136  A    between atoms: _349  and  _350
REMARK  137  A    between atoms: _352  and  _354
REMARK  138  A    between atoms: _354  and  _355
REMARK  139  A    between atoms: _354  and  _357
REMARK  140  A    between atoms: _357  and  _358
REMARK  141  A    between atoms: _358  and  _359
REMARK  142  A    between atoms: _359  and  _360
REMARK  143  A    between atoms: _360  and  _361
REMARK  144  A    between atoms: _365  and  _367
REMARK  145  A    between atoms: _367  and  _368
REMARK  146  A    between atoms: _367  and  _370
REMARK  147  A    between atoms: _370  and  _371
REMARK  148  A    between atoms: _374  and  _376
REMARK  149  A    between atoms: _376  and  _377
REMARK  150  A    between atoms: _380  and  _382
REMARK  151  A    between atoms: _382  and  _383
REMARK  152  A    between atoms: _385  and  _387
REMARK  153  A    between atoms: _387  and  _388
REMARK  154  A    between atoms: _387  and  _390
REMARK  155  A    between atoms: _390  and  _391
REMARK  156  A    between atoms: _394  and  _396
REMARK  157  A    between atoms: _396  and  _397
REMARK  158  A    between atoms: _396  and  _399
REMARK  159  A    between atoms: _399  and  _400
REMARK  160  A    between atoms: _403  and  _405
REMARK  161  A    between atoms: _405  and  _406
REMARK  162  A    between atoms: _409  and  _411
REMARK  163  A    between atoms: _411  and  _412
REMARK  164  A    between atoms: _411  and  _414
REMARK  165  A    between atoms: _414  and  _415
REMARK  166  A    between atoms: _415  and  _416
REMARK  167  A    between atoms: _419  and  _421
REMARK  168  A    between atoms: _421  and  _422
REMARK  169  A    between atoms: _421  and  _424
REMARK  170  A    between atoms: _427  and  _429
REMARK  171  A    between atoms: _429  and  _430
REMARK  172  A    between atoms: _429  and  _432
REMARK  173  A    between atoms: _432  and  _433
REMARK  174  A    between atoms: _436  and  _438
REMARK  175  A    between atoms: _438  and  _439
REMARK  176  A    between atoms: _441  and  _443
REMARK  177  A    between atoms: _443  and  _444
REMARK  178  A    between atoms: _443  and  _446
REMARK  179  A    between atoms: _449  and  _451
REMARK  180  A    between atoms: _451  and  _452
REMARK  181  A    between atoms: _454  and  _456
REMARK  182  A    between atoms: _456  and  _457
REMARK  183  A    between atoms: _456  and  _459
REMARK  184  A    between atoms: _459  and  _460
REMARK  185  A    between atoms: _463  and  _465
REMARK  186  A    between atoms: _465  and  _466
REMARK  187  A    between atoms: _465  and  _468
REMARK  188  A    between atoms: _468  and  _469
REMARK  189  A    between atoms: _474  and  _476
REMARK  190  A    between atoms: _476  and  _477
REMARK  191  A    between atoms: _476  and  _479
REMARK  192  A    between atoms: _482  and  _484
REMARK  193  A    between atoms: _484  and  _485
REMARK  194  A    between atoms: _484  and  _487
REMARK  195  A    between atoms: _487  and  _488
REMARK  196  A    between atoms: _488  and  _489
REMARK  197  A    between atoms: _494  and  _496
REMARK  198  A    between atoms: _496  and  _497
REMARK  199  A    between atoms: _501  and  _502
REMARK  200  A    between atoms: _507  and  _509
REMARK  201  A    between atoms: _509  and  _510
REMARK  202  A    between atoms: _509  and  _512
REMARK  203  A    between atoms: _512  and  _513
REMARK  204  A    between atoms: _513  and  _514
REMARK  205  A    between atoms: _517  and  _519
REMARK  206  A    between atoms: _519  and  _520
REMARK  207  A    between atoms: _519  and  _522
REMARK  208  A    between atoms: _525  and  _527
REMARK  209  A    between atoms: _527  and  _528
REMARK  210  A    between atoms: _527  and  _530
REMARK  211  A    between atoms: _530  and  _531
REMARK  212  A    between atoms: _535  and  _536
REMARK  213  A    between atoms: _541  and  _543
REMARK  214  A    between atoms: _543  and  _544
REMARK  215  A    between atoms: _543  and  _546
REMARK  216  A    between atoms: _546  and  _547
REMARK  217  A    between atoms: _550  and  _552
REMARK  218  A    between atoms: _552  and  _553
REMARK  219  A    between atoms: _556  and  _558
REMARK  220  A    between atoms: _558  and  _559
REMARK  221  A    between atoms: _558  and  _561
REMARK  222  A    between atoms: _561  and  _562
REMARK  223  A    between atoms: _565  and  _567
REMARK  224  A    between atoms: _567  and  _568
REMARK  225  A    between atoms: _567  and  _570
REMARK  226  A    between atoms: _570  and  _571
REMARK  227  A    between atoms: _573  and  _575
REMARK  228  A    between atoms: _575  and  _576
REMARK  229  A    between atoms: _578  and  _580
REMARK  230  A    between atoms: _580  and  _581
REMARK  231  A    between atoms: _580  and  _583
REMARK  232  A    between atoms: _583  and  _584
REMARK  233  A    between atoms: _587  and  _589
REMARK  234  A    between atoms: _589  and  _590
REMARK  235  A    between atoms: _589  and  _592
REMARK                            x       y       z     vdW  Elec       q    Type
REMARK                         _______ _______ _______ _____ _____    ______ ____
ROOT
ATOM      1  O   HOH     1      -2.513   1.496   5.438  0.00  0.00    +0.000 OA
ENDROOT
TORSDOF 0
REMARK  Name = ../refined-set-2016/4xtv/4xtv_pocket.pdb
REMARK  235 active torsions:
REMARK  status: ('A' for Active; 'I' for Inactive)
REMARK    1  A    between atoms: _1  and  _3
REMARK    2  A    between atoms: _3  and  _4
REMARK    3  A    between atoms: _3  and  _6
REMARK    4  A    between atoms: _6  and  _7
REMARK    5  A    between atoms: _10  and  _12
REMARK    6  A    between atoms: _12  and  _13
REMARK    7  A    between atoms: _15  and  _17
REMARK    8  A    between atoms: _17  and  _18
REMARK    9  A    between atoms: _17  and  _20
REMARK   10  A    between atoms: _20  and  _21
REMARK   11  A    between atoms: _23  and  _25
REMARK   12  A    between atoms: _25  and  _26
REMARK   13  A    between atoms: _25  and  _28
REMARK   14  A    between atoms: _28  and  _29
REMARK   15  A    between atoms: _32  and  _34
REMARK   16  A    between atoms: _34  and  _35
REMARK   17  A    between atoms: _34  and  _37
REMARK   18  A    between atoms: _37  and  _38
REMARK   19  A    between atoms: _43  and  _45
REMARK   20  A    between atoms: _45  and  _46
REMARK   21  A    between atoms: _49  and  _51
REMARK   22  A    between atoms: _51  and  _52
REMARK   23  A    between atoms: _51  and  _54
REMARK   24  A    between atoms: _54  and  _55
REMARK   25  A    between atoms: _58  and  _60
REMARK   26  A    between atoms: _60  and  _61
REMARK   27  A    between atoms: _60  and  _63
REMARK   28  A    between atoms: _63  and  _64
REMARK   29  A    between atoms: _67  and  _69
REMARK   30  A    between atoms: _69  and  _70
REMARK   31  A    between atoms: _69  and  _72
REMARK   32  A    between atoms: _72  and  _73
REMARK   33  A    between atoms: _76  and  _78
REMARK   34  A    between atoms: _78  and  _79
REMARK   35  A    between atoms: _82  and  _84
REMARK   36  A    between atoms: _84  and  _85
REMARK   37  A    between atoms: _84  and  _87
REMARK   38  A    between atoms: _87  and  _88
REMARK   39  A    between atoms: _88  and  _89
REMARK   40  A    between atoms: _94  and  _96
REMARK   41  A    between atoms: _96  and  _97
REMARK   42  A    between atoms: _96  and  _99
REMARK   43  A    between atoms: _99  and  _100
REMARK   44  A    between atoms: _103  and  _105
REMARK   45  A    between atoms: _105  and  _106
REMARK   46  A    between atoms: _109  and  _111
REMARK   47  A    between atoms: _111  and  _112
REMARK   48  A    between atoms: _114  and  _116
REMARK   49  A    between atoms: _116  and  _117
REMARK   50  A    between atoms: _116  and  _119
REMARK   51  A    between atoms: _119  and  _120
REMARK   52  A    between atoms: _120  and  _121
REMARK   53  A    between atoms: _121  and  _122
REMARK   54  A    between atoms: _131  and  _133
REMARK   55  A    between atoms: _133  and  _134
REMARK   56  A    between atoms: _136  and  _138
REMARK   57  A    between atoms: _138  and  _139
REMARK   58  A    between atoms: _138  and  _141
REMARK   59  A    between atoms: _141  and  _142
REMARK   60  A    between atoms: _142  and  _143
REMARK   61  A    between atoms: _143  and  _144
REMARK   62  A    between atoms: _153  and  _155
REMARK   63  A    between atoms: _155  and  _156
REMARK   64  A    between atoms: _155  and  _158
REMARK   65  A    between atoms: _158  and  _159
REMARK   66  A    between atoms: _164  and  _166
REMARK   67  A    between atoms: _166  and  _167
REMARK   68  A    between atoms: _169  and  _171
REMARK   69  A    between atoms: _171  and  _172
REMARK   70  A    between atoms: _171  and  _174
REMARK   71  A    between atoms: _174  and  _175
REMARK   72  A    between atoms: _175  and  _176
REMARK   73  A    between atoms: _176  and  _177
REMARK   74  A    between atoms: _186  and  _188
REMARK   75  A    between atoms: _188  and  _189
REMARK   76  A    between atoms: _191  and  _193
REMARK   77  A    between atoms: _193  and  _194
REMARK   78  A    between atoms: _193  and  _196
REMARK   79  A    between atoms: _196  and  _197
REMARK   80  A    between atoms: _207  and  _209
REMARK   81  A    between atoms: _209  and  _210
REMARK   82  A    between atoms: _213  and  _215
REMARK   83  A    between atoms: _215  and  _216
REMARK   84  A    between atoms: _219  and  _221
REMARK   85  A    between atoms: _221  and  _222
REMARK   86  A    between atoms: _221  and  _224
REMARK   87  A    between atoms: _224  and  _225
REMARK   88  A    between atoms: _228  and  _230
REMARK   89  A    between atoms: _230  and  _231
REMARK   90  A    between atoms: _230  and  _233
REMARK   91  A    between atoms: _233  and  _234
REMARK   92  A    between atoms: _234  and  _235
REMARK   93  A    between atoms: _240  and  _242
REMARK   94  A    between atoms: _242  and  _243
REMARK   95  A    between atoms: _242  and  _245
REMARK   96  A    between atoms: _245  and  _246
REMARK   97  A    between atoms: _249  and  _251
REMARK   98  A    between atoms: _251  and  _252
REMARK   99  A    between atoms: _251  and  _254
REMARK  100  A    between atoms: _254  and  _255
REMARK  101  A    between atoms: _258  and  _260
REMARK  102  A    between atoms: _260  and  _261
REMARK  103  A    between atoms: _260  and  _263
REMARK  104  A    between atoms: _263  and  _264
REMARK  105  A    between atoms: _267  and  _269
REMARK  106  A    between atoms: _269  and  _270
REMARK  107  A    between atoms: _269  and  _272
REMARK  108  A    between atoms: _272  and  _273
REMARK  109  A    between atoms: _275  and  _277
REMARK  110  A    between atoms: _277  and  _278
REMARK  111  A    between atoms: _277  and  _280
REMARK  112  A    between atoms: _283  and  _285
REMARK  113  A    between atoms: _285  and  _286
REMARK  114  A    between atoms: _285  and  _288
REMARK  115  A    between atoms: _288  and  _289
REMARK  116  A    between atoms: _289  and  _290
REMARK  117  A    between atoms: _290  and  _291
REMARK  118  A    between atoms: _291  and  _292
REMARK  119  A    between atoms: _296  and  _298
REMARK  120  A    between atoms: _298  and  _299
REMARK  121  A    between atoms: _298  and  _301
REMARK  122  A    between atoms: _301  and  _302
REMARK  123  A    between atoms: _313  and  _314
REMARK  124  A    between atoms: _319  and  _321
REMARK  125  A    between atoms: _321  and  _322
REMARK  126  A    between atoms: _321  and  _324
REMARK  127  A    between atoms: _324  and  _325
REMARK  128  A    between atoms: _330  and  _332
REMARK  129  A    between atoms: _332  and  _333
REMARK  130  A    between atoms: _332  and  _335
REMARK  131  A    between atoms: _335  and  _336
REMARK  132  A    between atoms: _339  and  _341
REMARK  133  A    between atoms: _341  and  _342
REMARK  134  A    between atoms: _341  and  _344
REMARK  135  A    between atoms: _347  and  _349
REMARK  136  A    between atoms: _349  and  _350
REMARK  137  A    between atoms: _352  and  _354
REMARK  138  A    between atoms: _354  and  _355
REMARK  139  A    between atoms: _354  and  _357
REMARK  140  A    between atoms: _357  and  _358
REMARK  141  A    between atoms: _358  and  _359
REMARK  142  A    between atoms: _359  and  _360
REMARK  143  A    between atoms: _360  and  _361
REMARK  144  A    between atoms: _365  and  _367
REMARK  145  A    between atoms: _367  and  _368
REMARK  146  A    between atoms: _367  and  _370
REMARK  147  A    between atoms: _370  and  _371
REMARK  148  A    between atoms: _374  and  _376
REMARK  149  A    between atoms: _376  and  _377
REMARK  150  A    between atoms: _380  and  _382
REMARK  151  A    between atoms: _382  and  _383
REMARK  152  A    between atoms: _385  and  _387
REMARK  153  A    between atoms: _387  and  _388
REMARK  154  A    between atoms: _387  and  _390
REMARK  155  A    between atoms: _390  and  _391
REMARK  156  A    between atoms: _394  and  _396
REMARK  157  A    between atoms: _396  and  _397
REMARK  158  A    between atoms: _396  and  _399
REMARK  159  A    between atoms: _399  and  _400
REMARK  160  A    between atoms: _403  and  _405
REMARK  161  A    between atoms: _405  and  _406
REMARK  162  A    between atoms: _409  and  _411
REMARK  163  A    between atoms: _411  and  _412
REMARK  164  A    between atoms: _411  and  _414
REMARK  165  A    between atoms: _414  and  _415
REMARK  166  A    between atoms: _415  and  _416
REMARK  167  A    between atoms: _419  and  _421
REMARK  168  A    between atoms: _421  and  _422
REMARK  169  A    between atoms: _421  and  _424
REMARK  170  A    between atoms: _427  and  _429
REMARK  171  A    between atoms: _429  and  _430
REMARK  172  A    between atoms: _429  and  _432
REMARK  173  A    between atoms: _432  and  _433
REMARK  174  A    between atoms: _436  and  _438
REMARK  175  A    between atoms: _438  and  _439
REMARK  176  A    between atoms: _441  and  _443
REMARK  177  A    between atoms: _443  and  _444
REMARK  178  A    between atoms: _443  and  _446
REMARK  179  A    between atoms: _449  and  _451
REMARK  180  A    between atoms: _451  and  _452
REMARK  181  A    between atoms: _454  and  _456
REMARK  182  A    between atoms: _456  and  _457
REMARK  183  A    between atoms: _456  and  _459
REMARK  184  A    between atoms: _459  and  _460
REMARK  185  A    between atoms: _463  and  _465
REMARK  186  A    between atoms: _465  and  _466
REMARK  187  A    between atoms: _465  and  _468
REMARK  188  A    between atoms: _468  and  _469
REMARK  189  A    between atoms: _474  and  _476
REMARK  190  A    between atoms: _476  and  _477
REMARK  191  A    between atoms: _476  and  _479
REMARK  192  A    between atoms: _482  and  _484
REMARK  193  A    between atoms: _484  and  _485
REMARK  194  A    between atoms: _484  and  _487
REMARK  195  A    between atoms: _487  and  _488
REMARK  196  A    between atoms: _488  and  _489
REMARK  197  A    between atoms: _494  and  _496
REMARK  198  A    between atoms: _496  and  _497
REMARK  199  A    between atoms: _501  and  _502
REMARK  200  A    between atoms: _507  and  _509
REMARK  201  A    between atoms: _509  and  _510
REMARK  202  A    between atoms: _509  and  _512
REMARK  203  A    between atoms: _512  and  _513
REMARK  204  A    between atoms: _513  and  _514
REMARK  205  A    between atoms: _517  and  _519
REMARK  206  A    between atoms: _519  and  _520
REMARK  207  A    between atoms: _519  and  _522
REMARK  208  A    between atoms: _525  and  _527
REMARK  209  A    between atoms: _527  and  _528
REMARK  210  A    between atoms: _527  and  _530
REMARK  211  A    between atoms: _530  and  _531
REMARK  212  A    between atoms: _535  and  _536
REMARK  213  A    between atoms: _541  and  _543
REMARK  214  A    between atoms: _543  and  _544
REMARK  215  A    between atoms: _543  and  _546
REMARK  216  A    between atoms: _546  and  _547
REMARK  217  A    between atoms: _550  and  _552
REMARK  218  A    between atoms: _552  and  _553
REMARK  219  A    between atoms: _556  and  _558
REMARK  220  A    between atoms: _558  and  _559
REMARK  221  A    between atoms: _558  and  _561
REMARK  222  A    between atoms: _561  and  _562
REMARK  223  A    between atoms: _565  and  _567
REMARK  224  A    between atoms: _567  and  _568
REMARK  225  A    between atoms: _567  and  _570
REMARK  226  A    between atoms: _570  and  _571
REMARK  227  A    between atoms: _573  and  _575
REMARK  228  A    between atoms: _575  and  _576
REMARK  229  A    between atoms: _578  and  _580
REMARK  230  A    between atoms: _580  and  _581
REMARK  231  A    between atoms: _580  and  _583
REMARK  232  A    between atoms: _583  and  _584
REMARK  233  A    between atoms: _587  and  _589
REMARK  234  A    between atoms: _589  and  _590
REMARK  235  A    between atoms: _589  and  _592
REMARK                            x       y       z     vdW  Elec       q    Type
REMARK                         _______ _______ _______ _____ _____    ______ ____
ROOT
ATOM      1  O   HOH     1       1.684   1.924  15.342  0.00  0.00    +0.000 OA
ENDROOT
TORSDOF 0
REMARK  Name = ../refined-set-2016/4xtv/4xtv_pocket.pdb
REMARK  235 active torsions:
REMARK  status: ('A' for Active; 'I' for Inactive)
REMARK    1  A    between atoms: _1  and  _3
REMARK    2  A    between atoms: _3  and  _4
REMARK    3  A    between atoms: _3  and  _6
REMARK    4  A    between atoms: _6  and  _7
REMARK    5  A    between atoms: _10  and  _12
REMARK    6  A    between atoms: _12  and  _13
REMARK    7  A    between atoms: _15  and  _17
REMARK    8  A    between atoms: _17  and  _18
REMARK    9  A    between atoms: _17  and  _20
REMARK   10  A    between atoms: _20  and  _21
REMARK   11  A    between atoms: _23  and  _25
REMARK   12  A    between atoms: _25  and  _26
REMARK   13  A    between atoms: _25  and  _28
REMARK   14  A    between atoms: _28  and  _29
REMARK   15  A    between atoms: _32  and  _34
REMARK   16  A    between atoms: _34  and  _35
REMARK   17  A    between atoms: _34  and  _37
REMARK   18  A    between atoms: _37  and  _38
REMARK   19  A    between atoms: _43  and  _45
REMARK   20  A    between atoms: _45  and  _46
REMARK   21  A    between atoms: _49  and  _51
REMARK   22  A    between atoms: _51  and  _52
REMARK   23  A    between atoms: _51  and  _54
REMARK   24  A    between atoms: _54  and  _55
REMARK   25  A    between atoms: _58  and  _60
REMARK   26  A    between atoms: _60  and  _61
REMARK   27  A    between atoms: _60  and  _63
REMARK   28  A    between atoms: _63  and  _64
REMARK   29  A    between atoms: _67  and  _69
REMARK   30  A    between atoms: _69  and  _70
REMARK   31  A    between atoms: _69  and  _72
REMARK   32  A    between atoms: _72  and  _73
REMARK   33  A    between atoms: _76  and  _78
REMARK   34  A    between atoms: _78  and  _79
REMARK   35  A    between atoms: _82  and  _84
REMARK   36  A    between atoms: _84  and  _85
REMARK   37  A    between atoms: _84  and  _87
REMARK   38  A    between atoms: _87  and  _88
REMARK   39  A    between atoms: _88  and  _89
REMARK   40  A    between atoms: _94  and  _96
REMARK   41  A    between atoms: _96  and  _97
REMARK   42  A    between atoms: _96  and  _99
REMARK   43  A    between atoms: _99  and  _100
REMARK   44  A    between atoms: _103  and  _105
REMARK   45  A    between atoms: _105  and  _106
REMARK   46  A    between atoms: _109  and  _111
REMARK   47  A    between atoms: _111  and  _112
REMARK   48  A    between atoms: _114  and  _116
REMARK   49  A    between atoms: _116  and  _117
REMARK   50  A    between atoms: _116  and  _119
REMARK   51  A    between atoms: _119  and  _120
REMARK   52  A    between atoms: _120  and  _121
REMARK   53  A    between atoms: _121  and  _122
REMARK   54  A    between atoms: _131  and  _133
REMARK   55  A    between atoms: _133  and  _134
REMARK   56  A    between atoms: _136  and  _138
REMARK   57  A    between atoms: _138  and  _139
REMARK   58  A    between atoms: _138  and  _141
REMARK   59  A    between atoms: _141  and  _142
REMARK   60  A    between atoms: _142  and  _143
REMARK   61  A    between atoms: _143  and  _144
REMARK   62  A    between atoms: _153  and  _155
REMARK   63  A    between atoms: _155  and  _156
REMARK   64  A    between atoms: _155  and  _158
REMARK   65  A    between atoms: _158  and  _159
REMARK   66  A    between atoms: _164  and  _166
REMARK   67  A    between atoms: _166  and  _167
REMARK   68  A    between atoms: _169  and  _171
REMARK   69  A    between atoms: _171  and  _172
REMARK   70  A    between atoms: _171  and  _174
REMARK   71  A    between atoms: _174  and  _175
REMARK   72  A    between atoms: _175  and  _176
REMARK   73  A    between atoms: _176  and  _177
REMARK   74  A    between atoms: _186  and  _188
REMARK   75  A    between atoms: _188  and  _189
REMARK   76  A    between atoms: _191  and  _193
REMARK   77  A    between atoms: _193  and  _194
REMARK   78  A    between atoms: _193  and  _196
REMARK   79  A    between atoms: _196  and  _197
REMARK   80  A    between atoms: _207  and  _209
REMARK   81  A    between atoms: _209  and  _210
REMARK   82  A    between atoms: _213  and  _215
REMARK   83  A    between atoms: _215  and  _216
REMARK   84  A    between atoms: _219  and  _221
REMARK   85  A    between atoms: _221  and  _222
REMARK   86  A    between atoms: _221  and  _224
REMARK   87  A    between atoms: _224  and  _225
REMARK   88  A    between atoms: _228  and  _230
REMARK   89  A    between atoms: _230  and  _231
REMARK   90  A    between atoms: _230  and  _233
REMARK   91  A    between atoms: _233  and  _234
REMARK   92  A    between atoms: _234  and  _235
REMARK   93  A    between atoms: _240  and  _242
REMARK   94  A    between atoms: _242  and  _243
REMARK   95  A    between atoms: _242  and  _245
REMARK   96  A    between atoms: _245  and  _246
REMARK   97  A    between atoms: _249  and  _251
REMARK   98  A    between atoms: _251  and  _252
REMARK   99  A    between atoms: _251  and  _254
REMARK  100  A    between atoms: _254  and  _255
REMARK  101  A    between atoms: _258  and  _260
REMARK  102  A    between atoms: _260  and  _261
REMARK  103  A    between atoms: _260  and  _263
REMARK  104  A    between atoms: _263  and  _264
REMARK  105  A    between atoms: _267  and  _269
REMARK  106  A    between atoms: _269  and  _270
REMARK  107  A    between atoms: _269  and  _272
REMARK  108  A    between atoms: _272  and  _273
REMARK  109  A    between atoms: _275  and  _277
REMARK  110  A    between atoms: _277  and  _278
REMARK  111  A    between atoms: _277  and  _280
REMARK  112  A    between atoms: _283  and  _285
REMARK  113  A    between atoms: _285  and  _286
REMARK  114  A    between atoms: _285  and  _288
REMARK  115  A    between atoms: _288  and  _289
REMARK  116  A    between atoms: _289  and  _290
REMARK  117  A    between atoms: _290  and  _291
REMARK  118  A    between atoms: _291  and  _292
REMARK  119  A    between atoms: _296  and  _298
REMARK  120  A    between atoms: _298  and  _299
REMARK  121  A    between atoms: _298  and  _301
REMARK  122  A    between atoms: _301  and  _302
REMARK  123  A    between atoms: _313  and  _314
REMARK  124  A    between atoms: _319  and  _321
REMARK  125  A    between atoms: _321  and  _322
REMARK  126  A    between atoms: _321  and  _324
REMARK  127  A    between atoms: _324  and  _325
REMARK  128  A    between atoms: _330  and  _332
REMARK  129  A    between atoms: _332  and  _333
REMARK  130  A    between atoms: _332  and  _335
REMARK  131  A    between atoms: _335  and  _336
REMARK  132  A    between atoms: _339  and  _341
REMARK  133  A    between atoms: _341  and  _342
REMARK  134  A    between atoms: _341  and  _344
REMARK  135  A    between atoms: _347  and  _349
REMARK  136  A    between atoms: _349  and  _350
REMARK  137  A    between atoms: _352  and  _354
REMARK  138  A    between atoms: _354  and  _355
REMARK  139  A    between atoms: _354  and  _357
REMARK  140  A    between atoms: _357  and  _358
REMARK  141  A    between atoms: _358  and  _359
REMARK  142  A    between atoms: _359  and  _360
REMARK  143  A    between atoms: _360  and  _361
REMARK  144  A    between atoms: _365  and  _367
REMARK  145  A    between atoms: _367  and  _368
REMARK  146  A    between atoms: _367  and  _370
REMARK  147  A    between atoms: _370  and  _371
REMARK  148  A    between atoms: _374  and  _376
REMARK  149  A    between atoms: _376  and  _377
REMARK  150  A    between atoms: _380  and  _382
REMARK  151  A    between atoms: _382  and  _383
REMARK  152  A    between atoms: _385  and  _387
REMARK  153  A    between atoms: _387  and  _388
REMARK  154  A    between atoms: _387  and  _390
REMARK  155  A    between atoms: _390  and  _391
REMARK  156  A    between atoms: _394  and  _396
REMARK  157  A    between atoms: _396  and  _397
REMARK  158  A    between atoms: _396  and  _399
REMARK  159  A    between atoms: _399  and  _400
REMARK  160  A    between atoms: _403  and  _405
REMARK  161  A    between atoms: _405  and  _406
REMARK  162  A    between atoms: _409  and  _411
REMARK  163  A    between atoms: _411  and  _412
REMARK  164  A    between atoms: _411  and  _414
REMARK  165  A    between atoms: _414  and  _415
REMARK  166  A    between atoms: _415  and  _416
REMARK  167  A    between atoms: _419  and  _421
REMARK  168  A    between atoms: _421  and  _422
REMARK  169  A    between atoms: _421  and  _424
REMARK  170  A    between atoms: _427  and  _429
REMARK  171  A    between atoms: _429  and  _430
REMARK  172  A    between atoms: _429  and  _432
REMARK  173  A    between atoms: _432  and  _433
REMARK  174  A    between atoms: _436  and  _438
REMARK  175  A    between atoms: _438  and  _439
REMARK  176  A    between atoms: _441  and  _443
REMARK  177  A    between atoms: _443  and  _444
REMARK  178  A    between atoms: _443  and  _446
REMARK  179  A    between atoms: _449  and  _451
REMARK  180  A    between atoms: _451  and  _452
REMARK  181  A    between atoms: _454  and  _456
REMARK  182  A    between atoms: _456  and  _457
REMARK  183  A    between atoms: _456  and  _459
REMARK  184  A    between atoms: _459  and  _460
REMARK  185  A    between atoms: _463  and  _465
REMARK  186  A    between atoms: _465  and  _466
REMARK  187  A    between atoms: _465  and  _468
REMARK  188  A    between atoms: _468  and  _469
REMARK  189  A    between atoms: _474  and  _476
REMARK  190  A    between atoms: _476  and  _477
REMARK  191  A    between atoms: _476  and  _479
REMARK  192  A    between atoms: _482  and  _484
REMARK  193  A    between atoms: _484  and  _485
REMARK  194  A    between atoms: _484  and  _487
REMARK  195  A    between atoms: _487  and  _488
REMARK  196  A    between atoms: _488  and  _489
REMARK  197  A    between atoms: _494  and  _496
REMARK  198  A    between atoms: _496  and  _497
REMARK  199  A    between atoms: _501  and  _502
REMARK  200  A    between atoms: _507  and  _509
REMARK  201  A    between atoms: _509  and  _510
REMARK  202  A    between atoms: _509  and  _512
REMARK  203  A    between atoms: _512  and  _513
REMARK  204  A    between atoms: _513  and  _514
REMARK  205  A    between atoms: _517  and  _519
REMARK  206  A    between atoms: _519  and  _520
REMARK  207  A    between atoms: _519  and  _522
REMARK  208  A    between atoms: _525  and  _527
REMARK  209  A    between atoms: _527  and  _528
REMARK  210  A    between atoms: _527  and  _530
REMARK  211  A    between atoms: _530  and  _531
REMARK  212  A    between atoms: _535  and  _536
REMARK  213  A    between atoms: _541  and  _543
REMARK  214  A    between atoms: _543  and  _544
REMARK  215  A    between atoms: _543  and  _546
REMARK  216  A    between atoms: _546  and  _547
REMARK  217  A    between atoms: _550  and  _552
REMARK  218  A    between atoms: _552  and  _553
REMARK  219  A    between atoms: _556  and  _558
REMARK  220  A    between atoms: _558  and  _559
REMARK  221  A    between atoms: _558  and  _561
REMARK  222  A    between atoms: _561  and  _562
REMARK  223  A    between atoms: _565  and  _567
REMARK  224  A    between atoms: _567  and  _568
REMARK  225  A    between atoms: _567  and  _570
REMARK  226  A    between atoms: _570  and  _571
REMARK  227  A    between atoms: _573  and  _575
REMARK  228  A    between atoms: _575  and  _576
REMARK  229  A    between atoms: _578  and  _580
REMARK  230  A    between atoms: _580  and  _581
REMARK  231  A    between atoms: _580  and  _583
REMARK  232  A    between atoms: _583  and  _584
REMARK  233  A    between atoms: _587  and  _589
REMARK  234  A    between atoms: _589  and  _590
REMARK  235  A    between atoms: _589  and  _592
REMARK                            x       y       z     vdW  Elec       q    Type
REMARK                         _______ _______ _______ _____ _____    ______ ____
ROOT
ATOM      1  O   HOH     1      -3.258   8.421   8.664  0.00  0.00    +0.000 OA
ENDROOT
TORSDOF 0
REMARK  Name = ../refined-set-2016/4xtv/4xtv_pocket.pdb
REMARK  235 active torsions:
REMARK  status: ('A' for Active; 'I' for Inactive)
REMARK    1  A    between atoms: _1  and  _3
REMARK    2  A    between atoms: _3  and  _4
REMARK    3  A    between atoms: _3  and  _6
REMARK    4  A    between atoms: _6  and  _7
REMARK    5  A    between atoms: _10  and  _12
REMARK    6  A    between atoms: _12  and  _13
REMARK    7  A    between atoms: _15  and  _17
REMARK    8  A    between atoms: _17  and  _18
REMARK    9  A    between atoms: _17  and  _20
REMARK   10  A    between atoms: _20  and  _21
REMARK   11  A    between atoms: _23  and  _25
REMARK   12  A    between atoms: _25  and  _26
REMARK   13  A    between atoms: _25  and  _28
REMARK   14  A    between atoms: _28  and  _29
REMARK   15  A    between atoms: _32  and  _34
REMARK   16  A    between atoms: _34  and  _35
REMARK   17  A    between atoms: _34  and  _37
REMARK   18  A    between atoms: _37  and  _38
REMARK   19  A    between atoms: _43  and  _45
REMARK   20  A    between atoms: _45  and  _46
REMARK   21  A    between atoms: _49  and  _51
REMARK   22  A    between atoms: _51  and  _52
REMARK   23  A    between atoms: _51  and  _54
REMARK   24  A    between atoms: _54  and  _55
REMARK   25  A    between atoms: _58  and  _60
REMARK   26  A    between atoms: _60  and  _61
REMARK   27  A    between atoms: _60  and  _63
REMARK   28  A    between atoms: _63  and  _64
REMARK   29  A    between atoms: _67  and  _69
REMARK   30  A    between atoms: _69  and  _70
REMARK   31  A    between atoms: _69  and  _72
REMARK   32  A    between atoms: _72  and  _73
REMARK   33  A    between atoms: _76  and  _78
REMARK   34  A    between atoms: _78  and  _79
REMARK   35  A    between atoms: _82  and  _84
REMARK   36  A    between atoms: _84  and  _85
REMARK   37  A    between atoms: _84  and  _87
REMARK   38  A    between atoms: _87  and  _88
REMARK   39  A    between atoms: _88  and  _89
REMARK   40  A    between atoms: _94  and  _96
REMARK   41  A    between atoms: _96  and  _97
REMARK   42  A    between atoms: _96  and  _99
REMARK   43  A    between atoms: _99  and  _100
REMARK   44  A    between atoms: _103  and  _105
REMARK   45  A    between atoms: _105  and  _106
REMARK   46  A    between atoms: _109  and  _111
REMARK   47  A    between atoms: _111  and  _112
REMARK   48  A    between atoms: _114  and  _116
REMARK   49  A    between atoms: _116  and  _117
REMARK   50  A    between atoms: _116  and  _119
REMARK   51  A    between atoms: _119  and  _120
REMARK   52  A    between atoms: _120  and  _121
REMARK   53  A    between atoms: _121  and  _122
REMARK   54  A    between atoms: _131  and  _133
REMARK   55  A    between atoms: _133  and  _134
REMARK   56  A    between atoms: _136  and  _138
REMARK   57  A    between atoms: _138  and  _139
REMARK   58  A    between atoms: _138  and  _141
REMARK   59  A    between atoms: _141  and  _142
REMARK   60  A    between atoms: _142  and  _143
REMARK   61  A    between atoms: _143  and  _144
REMARK   62  A    between atoms: _153  and  _155
REMARK   63  A    between atoms: _155  and  _156
REMARK   64  A    between atoms: _155  and  _158
REMARK   65  A    between atoms: _158  and  _159
REMARK   66  A    between atoms: _164  and  _166
REMARK   67  A    between atoms: _166  and  _167
REMARK   68  A    between atoms: _169  and  _171
REMARK   69  A    between atoms: _171  and  _172
REMARK   70  A    between atoms: _171  and  _174
REMARK   71  A    between atoms: _174  and  _175
REMARK   72  A    between atoms: _175  and  _176
REMARK   73  A    between atoms: _176  and  _177
REMARK   74  A    between atoms: _186  and  _188
REMARK   75  A    between atoms: _188  and  _189
REMARK   76  A    between atoms: _191  and  _193
REMARK   77  A    between atoms: _193  and  _194
REMARK   78  A    between atoms: _193  and  _196
REMARK   79  A    between atoms: _196  and  _197
REMARK   80  A    between atoms: _207  and  _209
REMARK   81  A    between atoms: _209  and  _210
REMARK   82  A    between atoms: _213  and  _215
REMARK   83  A    between atoms: _215  and  _216
REMARK   84  A    between atoms: _219  and  _221
REMARK   85  A    between atoms: _221  and  _222
REMARK   86  A    between atoms: _221  and  _224
REMARK   87  A    between atoms: _224  and  _225
REMARK   88  A    between atoms: _228  and  _230
REMARK   89  A    between atoms: _230  and  _231
REMARK   90  A    between atoms: _230  and  _233
REMARK   91  A    between atoms: _233  and  _234
REMARK   92  A    between atoms: _234  and  _235
REMARK   93  A    between atoms: _240  and  _242
REMARK   94  A    between atoms: _242  and  _243
REMARK   95  A    between atoms: _242  and  _245
REMARK   96  A    between atoms: _245  and  _246
REMARK   97  A    between atoms: _249  and  _251
REMARK   98  A    between atoms: _251  and  _252
REMARK   99  A    between atoms: _251  and  _254
REMARK  100  A    between atoms: _254  and  _255
REMARK  101  A    between atoms: _258  and  _260
REMARK  102  A    between atoms: _260  and  _261
REMARK  103  A    between atoms: _260  and  _263
REMARK  104  A    between atoms: _263  and  _264
REMARK  105  A    between atoms: _267  and  _269
REMARK  106  A    between atoms: _269  and  _270
REMARK  107  A    between atoms: _269  and  _272
REMARK  108  A    between atoms: _272  and  _273
REMARK  109  A    between atoms: _275  and  _277
REMARK  110  A    between atoms: _277  and  _278
REMARK  111  A    between atoms: _277  and  _280
REMARK  112  A    between atoms: _283  and  _285
REMARK  113  A    between atoms: _285  and  _286
REMARK  114  A    between atoms: _285  and  _288
REMARK  115  A    between atoms: _288  and  _289
REMARK  116  A    between atoms: _289  and  _290
REMARK  117  A    between atoms: _290  and  _291
REMARK  118  A    between atoms: _291  and  _292
REMARK  119  A    between atoms: _296  and  _298
REMARK  120  A    between atoms: _298  and  _299
REMARK  121  A    between atoms: _298  and  _301
REMARK  122  A    between atoms: _301  and  _302
REMARK  123  A    between atoms: _313  and  _314
REMARK  124  A    between atoms: _319  and  _321
REMARK  125  A    between atoms: _321  and  _322
REMARK  126  A    between atoms: _321  and  _324
REMARK  127  A    between atoms: _324  and  _325
REMARK  128  A    between atoms: _330  and  _332
REMARK  129  A    between atoms: _332  and  _333
REMARK  130  A    between atoms: _332  and  _335
REMARK  131  A    between atoms: _335  and  _336
REMARK  132  A    between atoms: _339  and  _341
REMARK  133  A    between atoms: _341  and  _342
REMARK  134  A    between atoms: _341  and  _344
REMARK  135  A    between atoms: _347  and  _349
REMARK  136  A    between atoms: _349  and  _350
REMARK  137  A    between atoms: _352  and  _354
REMARK  138  A    between atoms: _354  and  _355
REMARK  139  A    between atoms: _354  and  _357
REMARK  140  A    between atoms: _357  and  _358
REMARK  141  A    between atoms: _358  and  _359
REMARK  142  A    between atoms: _359  and  _360
REMARK  143  A    between atoms: _360  and  _361
REMARK  144  A    between atoms: _365  and  _367
REMARK  145  A    between atoms: _367  and  _368
REMARK  146  A    between atoms: _367  and  _370
REMARK  147  A    between atoms: _370  and  _371
REMARK  148  A    between atoms: _374  and  _376
REMARK  149  A    between atoms: _376  and  _377
REMARK  150  A    between atoms: _380  and  _382
REMARK  151  A    between atoms: _382  and  _383
REMARK  152  A    between atoms: _385  and  _387
REMARK  153  A    between atoms: _387  and  _388
REMARK  154  A    between atoms: _387  and  _390
REMARK  155  A    between atoms: _390  and  _391
REMARK  156  A    between atoms: _394  and  _396
REMARK  157  A    between atoms: _396  and  _397
REMARK  158  A    between atoms: _396  and  _399
REMARK  159  A    between atoms: _399  and  _400
REMARK  160  A    between atoms: _403  and  _405
REMARK  161  A    between atoms: _405  and  _406
REMARK  162  A    between atoms: _409  and  _411
REMARK  163  A    between atoms: _411  and  _412
REMARK  164  A    between atoms: _411  and  _414
REMARK  165  A    between atoms: _414  and  _415
REMARK  166  A    between atoms: _415  and  _416
REMARK  167  A    between atoms: _419  and  _421
REMARK  168  A    between atoms: _421  and  _422
REMARK  169  A    between atoms: _421  and  _424
REMARK  170  A    between atoms: _427  and  _429
REMARK  171  A    between atoms: _429  and  _430
REMARK  172  A    between atoms: _429  and  _432
REMARK  173  A    between atoms: _432  and  _433
REMARK  174  A    between atoms: _436  and  _438
REMARK  175  A    between atoms: _438  and  _439
REMARK  176  A    between atoms: _441  and  _443
REMARK  177  A    between atoms: _443  and  _444
REMARK  178  A    between atoms: _443  and  _446
REMARK  179  A    between atoms: _449  and  _451
REMARK  180  A    between atoms: _451  and  _452
REMARK  181  A    between atoms: _454  and  _456
REMARK  182  A    between atoms: _456  and  _457
REMARK  183  A    between atoms: _456  and  _459
REMARK  184  A    between atoms: _459  and  _460
REMARK  185  A    between atoms: _463  and  _465
REMARK  186  A    between atoms: _465  and  _466
REMARK  187  A    between atoms: _465  and  _468
REMARK  188  A    between atoms: _468  and  _469
REMARK  189  A    between atoms: _474  and  _476
REMARK  190  A    between atoms: _476  and  _477
REMARK  191  A    between atoms: _476  and  _479
REMARK  192  A    between atoms: _482  and  _484
REMARK  193  A    between atoms: _484  and  _485
REMARK  194  A    between atoms: _484  and  _487
REMARK  195  A    between atoms: _487  and  _488
REMARK  196  A    between atoms: _488  and  _489
REMARK  197  A    between atoms: _494  and  _496
REMARK  198  A    between atoms: _496  and  _497
REMARK  199  A    between atoms: _501  and  _502
REMARK  200  A    between atoms: _507  and  _509
REMARK  201  A    between atoms: _509  and  _510
REMARK  202  A    between atoms: _509  and  _512
REMARK  203  A    between atoms: _512  and  _513
REMARK  204  A    between atoms: _513  and  _514
REMARK  205  A    between atoms: _517  and  _519
REMARK  206  A    between atoms: _519  and  _520
REMARK  207  A    between atoms: _519  and  _522
REMARK  208  A    between atoms: _525  and  _527
REMARK  209  A    between atoms: _527  and  _528
REMARK  210  A    between atoms: _527  and  _530
REMARK  211  A    between atoms: _530  and  _531
REMARK  212  A    between atoms: _535  and  _536
REMARK  213  A    between atoms: _541  and  _543
REMARK  214  A    between atoms: _543  and  _544
REMARK  215  A    between atoms: _543  and  _546
REMARK  216  A    between atoms: _546  and  _547
REMARK  217  A    between atoms: _550  and  _552
REMARK  218  A    between atoms: _552  and  _553
REMARK  219  A    between atoms: _556  and  _558
REMARK  220  A    between atoms: _558  and  _559
REMARK  221  A    between atoms: _558  and  _561
REMARK  222  A    between atoms: _561  and  _562
REMARK  223  A    between atoms: _565  and  _567
REMARK  224  A    between atoms: _567  and  _568
REMARK  225  A    between atoms: _567  and  _570
REMARK  226  A    between atoms: _570  and  _571
REMARK  227  A    between atoms: _573  and  _575
REMARK  228  A    between atoms: _575  and  _576
REMARK  229  A    between atoms: _578  and  _580
REMARK  230  A    between atoms: _580  and  _581
REMARK  231  A    between atoms: _580  and  _583
REMARK  232  A    between atoms: _583  and  _584
REMARK  233  A    between atoms: _587  and  _589
REMARK  234  A    between atoms: _589  and  _590
REMARK  235  A    between atoms: _589  and  _592
REMARK                            x       y       z     vdW  Elec       q    Type
REMARK                         _______ _______ _______ _____ _____    ______ ____
ROOT
ATOM      1  O   HOH     1      -0.351   1.530   6.624  0.00  0.00    +0.000 OA
ENDROOT
TORSDOF 0
