REMARK  Name = ../refined-set-2016/1m7y/1m7y_pocket.pdb
REMARK  243 active torsions:
REMARK  status: ('A' for Active; 'I' for Inactive)
REMARK    1  A    between atoms: _1  and  _3
REMARK    2  A    between atoms: _3  and  _4
REMARK    3  A    between atoms: _3  and  _6
REMARK    4  A    between atoms: _6  and  _7
REMARK    5  A    between atoms: _12  and  _13
REMARK    6  A    between atoms: _15  and  _17
REMARK    7  A    between atoms: _17  and  _18
REMARK    8  A    between atoms: _17  and  _20
REMARK    9  A    between atoms: _20  and  _21
REMARK   10  A    between atoms: _27  and  _29
REMARK   11  A    between atoms: _29  and  _30
REMARK   12  A    between atoms: _29  and  _32
REMARK   13  A    between atoms: _32  and  _33
REMARK   14  A    between atoms: _43  and  _45
REMARK   15  A    between atoms: _45  and  _46
REMARK   16  A    between atoms: _45  and  _48
REMARK   17  A    between atoms: _48  and  _49
REMARK   18  A    between atoms: _49  and  _50
REMARK   19  A    between atoms: _55  and  _57
REMARK   20  A    between atoms: _57  and  _58
REMARK   21  A    between atoms: _60  and  _62
REMARK   22  A    between atoms: _62  and  _63
REMARK   23  A    between atoms: _62  and  _65
REMARK   24  A    between atoms: _65  and  _66
REMARK   25  A    between atoms: _69  and  _71
REMARK   26  A    between atoms: _71  and  _72
REMARK   27  A    between atoms: _75  and  _77
REMARK   28  A    between atoms: _77  and  _78
REMARK   29  A    between atoms: _77  and  _80
REMARK   30  A    between atoms: _80  and  _81
REMARK   31  A    between atoms: _81  and  _82
REMARK   32  A    between atoms: _85  and  _87
REMARK   33  A    between atoms: _87  and  _88
REMARK   34  A    between atoms: _87  and  _90
REMARK   35  A    between atoms: _90  and  _91
REMARK   36  A    between atoms: _96  and  _98
REMARK   37  A    between atoms: _98  and  _99
REMARK   38  A    between atoms: _98  and  _101
REMARK   39  A    between atoms: _101  and  _102
REMARK   40  A    between atoms: _105  and  _107
REMARK   41  A    between atoms: _107  and  _108
REMARK   42  A    between atoms: _111  and  _113
REMARK   43  A    between atoms: _113  and  _114
REMARK   44  A    between atoms: _116  and  _118
REMARK   45  A    between atoms: _118  and  _119
REMARK   46  A    between atoms: _122  and  _124
REMARK   47  A    between atoms: _124  and  _125
REMARK   48  A    between atoms: _124  and  _127
REMARK   49  A    between atoms: _127  and  _128
REMARK   50  A    between atoms: _131  and  _133
REMARK   51  A    between atoms: _133  and  _134
REMARK   52  A    between atoms: _133  and  _136
REMARK   53  A    between atoms: _136  and  _137
REMARK   54  A    between atoms: _139  and  _141
REMARK   55  A    between atoms: _141  and  _142
REMARK   56  A    between atoms: _145  and  _147
REMARK   57  A    between atoms: _147  and  _148
REMARK   58  A    between atoms: _147  and  _150
REMARK   59  A    between atoms: _150  and  _151
REMARK   60  A    between atoms: _156  and  _158
REMARK   61  A    between atoms: _158  and  _159
REMARK   62  A    between atoms: _158  and  _161
REMARK   63  A    between atoms: _161  and  _162
REMARK   64  A    between atoms: _162  and  _163
REMARK   65  A    between atoms: _166  and  _168
REMARK   66  A    between atoms: _168  and  _169
REMARK   67  A    between atoms: _168  and  _171
REMARK   68  A    between atoms: _171  and  _172
REMARK   69  A    between atoms: _177  and  _178
REMARK   70  A    between atoms: _180  and  _182
REMARK   71  A    between atoms: _182  and  _183
REMARK   72  A    between atoms: _182  and  _185
REMARK   73  A    between atoms: _185  and  _186
REMARK   74  A    between atoms: _191  and  _192
REMARK   75  A    between atoms: _195  and  _196
REMARK   76  A    between atoms: _201  and  _203
REMARK   77  A    between atoms: _203  and  _204
REMARK   78  A    between atoms: _206  and  _208
REMARK   79  A    between atoms: _208  and  _209
REMARK   80  A    between atoms: _208  and  _211
REMARK   81  A    between atoms: _211  and  _212
REMARK   82  A    between atoms: _218  and  _220
REMARK   83  A    between atoms: _220  and  _221
REMARK   84  A    between atoms: _220  and  _223
REMARK   85  A    between atoms: _223  and  _224
REMARK   86  A    between atoms: _224  and  _225
REMARK   87  A    between atoms: _225  and  _226
REMARK   88  A    between atoms: _235  and  _237
REMARK   89  A    between atoms: _237  and  _238
REMARK   90  A    between atoms: _237  and  _240
REMARK   91  A    between atoms: _240  and  _241
REMARK   92  A    between atoms: _244  and  _246
REMARK   93  A    between atoms: _246  and  _247
REMARK   94  A    between atoms: _246  and  _249
REMARK   95  A    between atoms: _249  and  _250
REMARK   96  A    between atoms: _253  and  _255
REMARK   97  A    between atoms: _255  and  _256
REMARK   98  A    between atoms: _255  and  _258
REMARK   99  A    between atoms: _261  and  _263
REMARK  100  A    between atoms: _263  and  _264
REMARK  101  A    between atoms: _263  and  _266
REMARK  102  A    between atoms: _266  and  _267
REMARK  103  A    between atoms: _270  and  _272
REMARK  104  A    between atoms: _272  and  _273
REMARK  105  A    between atoms: _272  and  _275
REMARK  106  A    between atoms: _275  and  _276
REMARK  107  A    between atoms: _282  and  _283
REMARK  108  A    between atoms: _288  and  _290
REMARK  109  A    between atoms: _290  and  _291
REMARK  110  A    between atoms: _290  and  _293
REMARK  111  A    between atoms: _293  and  _294
REMARK  112  A    between atoms: _296  and  _298
REMARK  113  A    between atoms: _298  and  _299
REMARK  114  A    between atoms: _298  and  _301
REMARK  115  A    between atoms: _301  and  _302
REMARK  116  A    between atoms: _308  and  _309
REMARK  117  A    between atoms: _314  and  _316
REMARK  118  A    between atoms: _316  and  _317
REMARK  119  A    between atoms: _316  and  _319
REMARK  120  A    between atoms: _319  and  _320
REMARK  121  A    between atoms: _323  and  _325
REMARK  122  A    between atoms: _325  and  _326
REMARK  123  A    between atoms: _325  and  _328
REMARK  124  A    between atoms: _328  and  _329
REMARK  125  A    between atoms: _329  and  _330
REMARK  126  A    between atoms: _333  and  _335
REMARK  127  A    between atoms: _335  and  _336
REMARK  128  A    between atoms: _335  and  _338
REMARK  129  A    between atoms: _338  and  _339
REMARK  130  A    between atoms: _342  and  _344
REMARK  131  A    between atoms: _344  and  _345
REMARK  132  A    between atoms: _344  and  _347
REMARK  133  A    between atoms: _347  and  _348
REMARK  134  A    between atoms: _353  and  _354
REMARK  135  A    between atoms: _356  and  _358
REMARK  136  A    between atoms: _358  and  _359
REMARK  137  A    between atoms: _358  and  _361
REMARK  138  A    between atoms: _364  and  _366
REMARK  139  A    between atoms: _366  and  _367
REMARK  140  A    between atoms: _366  and  _369
REMARK  141  A    between atoms: _369  and  _370
REMARK  142  A    between atoms: _375  and  _376
REMARK  143  A    between atoms: _378  and  _380
REMARK  144  A    between atoms: _380  and  _381
REMARK  145  A    between atoms: _380  and  _383
REMARK  146  A    between atoms: _383  and  _384
REMARK  147  A    between atoms: _386  and  _388
REMARK  148  A    between atoms: _388  and  _389
REMARK  149  A    between atoms: _388  and  _391
REMARK  150  A    between atoms: _391  and  _392
REMARK  151  A    between atoms: _395  and  _397
REMARK  152  A    between atoms: _397  and  _398
REMARK  153  A    between atoms: _397  and  _400
REMARK  154  A    between atoms: _400  and  _401
REMARK  155  A    between atoms: _403  and  _405
REMARK  156  A    between atoms: _405  and  _406
REMARK  157  A    between atoms: _405  and  _408
REMARK  158  A    between atoms: _408  and  _409
REMARK  159  A    between atoms: _409  and  _410
REMARK  160  A    between atoms: _410  and  _411
REMARK  161  A    between atoms: _411  and  _412
REMARK  162  A    between atoms: _416  and  _418
REMARK  163  A    between atoms: _418  and  _419
REMARK  164  A    between atoms: _418  and  _421
REMARK  165  A    between atoms: _421  and  _422
REMARK  166  A    between atoms: _426  and  _427
REMARK  167  A    between atoms: _432  and  _434
REMARK  168  A    between atoms: _434  and  _435
REMARK  169  A    between atoms: _437  and  _439
REMARK  170  A    between atoms: _439  and  _440
REMARK  171  A    between atoms: _439  and  _442
REMARK  172  A    between atoms: _442  and  _443
REMARK  173  A    between atoms: _449  and  _451
REMARK  174  A    between atoms: _451  and  _452
REMARK  175  A    between atoms: _451  and  _454
REMARK  176  A    between atoms: _454  and  _455
REMARK  177  A    between atoms: _455  and  _456
REMARK  178  A    between atoms: _456  and  _457
REMARK  179  A    between atoms: _466  and  _468
REMARK  180  A    between atoms: _468  and  _469
REMARK  181  A    between atoms: _468  and  _471
REMARK  182  A    between atoms: _474  and  _476
REMARK  183  A    between atoms: _476  and  _477
REMARK  184  A    between atoms: _479  and  _481
REMARK  185  A    between atoms: _481  and  _482
REMARK  186  A    between atoms: _485  and  _487
REMARK  187  A    between atoms: _487  and  _488
REMARK  188  A    between atoms: _487  and  _490
REMARK  189  A    between atoms: _490  and  _491
REMARK  190  A    between atoms: _494  and  _496
REMARK  191  A    between atoms: _496  and  _497
REMARK  192  A    between atoms: _496  and  _499
REMARK  193  A    between atoms: _499  and  _500
REMARK  194  A    between atoms: _506  and  _508
REMARK  195  A    between atoms: _508  and  _509
REMARK  196  A    between atoms: _508  and  _511
REMARK  197  A    between atoms: _511  and  _512
REMARK  198  A    between atoms: _514  and  _516
REMARK  199  A    between atoms: _516  and  _517
REMARK  200  A    between atoms: _516  and  _519
REMARK  201  A    between atoms: _521  and  _523
REMARK  202  A    between atoms: _523  and  _524
REMARK  203  A    between atoms: _523  and  _526
REMARK  204  A    between atoms: _526  and  _527
REMARK  205  A    between atoms: _527  and  _528
REMARK  206  A    between atoms: _528  and  _529
REMARK  207  A    between atoms: _538  and  _540
REMARK  208  A    between atoms: _540  and  _541
REMARK  209  A    between atoms: _540  and  _543
REMARK  210  A    between atoms: _545  and  _547
REMARK  211  A    between atoms: _547  and  _548
REMARK  212  A    between atoms: _547  and  _550
REMARK  213  A    between atoms: _550  and  _551
REMARK  214  A    between atoms: _556  and  _558
REMARK  215  A    between atoms: _558  and  _559
REMARK  216  A    between atoms: _558  and  _561
REMARK  217  A    between atoms: _561  and  _562
REMARK  218  A    between atoms: _565  and  _567
REMARK  219  A    between atoms: _567  and  _568
REMARK  220  A    between atoms: _567  and  _570
REMARK  221  A    between atoms: _570  and  _571
REMARK  222  A    between atoms: _571  and  _572
REMARK  223  A    between atoms: _577  and  _579
REMARK  224  A    between atoms: _579  and  _580
REMARK  225  A    between atoms: _579  and  _582
REMARK  226  A    between atoms: _582  and  _583
REMARK  227  A    between atoms: _586  and  _588
REMARK  228  A    between atoms: _588  and  _589
REMARK  229  A    between atoms: _588  and  _591
REMARK  230  A    between atoms: _591  and  _592
REMARK  231  A    between atoms: _597  and  _598
REMARK  232  A    between atoms: _600  and  _602
REMARK  233  A    between atoms: _602  and  _603
REMARK  234  A    between atoms: _602  and  _605
REMARK  235  A    between atoms: _605  and  _606
REMARK  236  A    between atoms: _608  and  _610
REMARK  237  A    between atoms: _610  and  _611
REMARK  238  A    between atoms: _610  and  _613
REMARK  239  A    between atoms: _613  and  _614
REMARK  240  A    between atoms: _620  and  _622
REMARK  241  A    between atoms: _622  and  _623
REMARK  242  A    between atoms: _622  and  _625
REMARK  243  A    between atoms: _625  and  _626
REMARK                            x       y       z     vdW  Elec       q    Type
REMARK                         _______ _______ _______ _____ _____    ______ ____
ROOT
ATOM      1  C   TYR A   1       9.618   4.456  24.344  0.00  0.00    +0.239 C 
ATOM      2  N   PHE A   2       9.814   5.253  25.389  0.00  0.00    -0.298 N 
ATOM      3  H   PHE A   2       9.882   6.280  25.238  0.00  0.00    +0.150 HD
ATOM      4  O   TYR A   1       9.537   3.231  24.442  0.00  0.00    -0.274 OA
ENDROOT
BRANCH   1   5
ATOM      5  CA  TYR A   1       9.492   5.140  22.986  0.00  0.00    +0.149 C 
BRANCH   5   6
ATOM      6  N   TYR A   1       8.663   6.336  23.083  0.00  0.00    -0.238 NA
ATOM      7  H   TYR A   1       9.051   7.243  22.754  0.00  0.00    +0.142 HD
ENDBRANCH   5   6
BRANCH   5   8
ATOM      8  CB  TYR A   1      10.876   5.509  22.440  0.00  0.00    +0.053 C 
BRANCH   8   9
ATOM      9  CG  TYR A   1      11.905   4.404  22.532  0.00  0.00    -0.020 A 
ATOM     10  CD2 TYR A   1      12.764   4.314  23.628  0.00  0.00    -0.001 A 
ATOM     11  CE2 TYR A   1      13.706   3.295  23.723  0.00  0.00    +0.036 A 
ATOM     12  CZ  TYR A   1      13.795   2.350  22.716  0.00  0.00    +0.134 A 
ATOM     13  CE1 TYR A   1      12.953   2.416  21.617  0.00  0.00    +0.036 A 
ATOM     14  CD1 TYR A   1      12.014   3.441  21.530  0.00  0.00    -0.001 A 
BRANCH  12  15
ATOM     15  OH  TYR A   1      14.723   1.341  22.808  0.00  0.00    -0.506 OA
ATOM     16  HH  TYR A   1      14.654   0.757  22.012  0.00  0.00    +0.292 HD
ENDBRANCH  12  15
ENDBRANCH   8   9
ENDBRANCH   5   8
ENDBRANCH   1   5
BRANCH   2  17
ATOM     17  CA  PHE A   2       9.936   4.725  26.742  0.00  0.00    +0.141 C 
BRANCH  17  18
ATOM     18  C   PHE A   2       8.553   4.528  27.355  0.00  0.00    +0.227 C 
ATOM     19  O   PHE A   2       8.364   3.686  28.232  0.00  0.00    -0.286 OA
ENDBRANCH  17  18
BRANCH  17  20
ATOM     20  CB  PHE A   2      10.753   5.681  27.615  0.00  0.00    +0.054 C 
BRANCH  20  21
ATOM     21  CG  PHE A   2      12.216   5.719  27.272  0.00  0.00    -0.020 A 
ATOM     22  CD2 PHE A   2      13.023   4.604  27.486  0.00  0.00    -0.004 A 
ATOM     23  CE2 PHE A   2      14.382   4.634  27.173  0.00  0.00    -0.000 A 
ATOM     24  CZ  PHE A   2      14.944   5.788  26.639  0.00  0.00    -0.000 A 
ATOM     25  CE1 PHE A   2      14.147   6.908  26.420  0.00  0.00    -0.000 A 
ATOM     26  CD1 PHE A   2      12.790   6.868  26.736  0.00  0.00    -0.004 A 
ENDBRANCH  20  21
ENDBRANCH  17  20
ENDBRANCH   2  17
TORSDOF 9
REMARK  Name = ../refined-set-2016/1m7y/1m7y_pocket.pdb
REMARK  243 active torsions:
REMARK  status: ('A' for Active; 'I' for Inactive)
REMARK    1  A    between atoms: _1  and  _3
REMARK    2  A    between atoms: _3  and  _4
REMARK    3  A    between atoms: _3  and  _6
REMARK    4  A    between atoms: _6  and  _7
REMARK    5  A    between atoms: _12  and  _13
REMARK    6  A    between atoms: _15  and  _17
REMARK    7  A    between atoms: _17  and  _18
REMARK    8  A    between atoms: _17  and  _20
REMARK    9  A    between atoms: _20  and  _21
REMARK   10  A    between atoms: _27  and  _29
REMARK   11  A    between atoms: _29  and  _30
REMARK   12  A    between atoms: _29  and  _32
REMARK   13  A    between atoms: _32  and  _33
REMARK   14  A    between atoms: _43  and  _45
REMARK   15  A    between atoms: _45  and  _46
REMARK   16  A    between atoms: _45  and  _48
REMARK   17  A    between atoms: _48  and  _49
REMARK   18  A    between atoms: _49  and  _50
REMARK   19  A    between atoms: _55  and  _57
REMARK   20  A    between atoms: _57  and  _58
REMARK   21  A    between atoms: _60  and  _62
REMARK   22  A    between atoms: _62  and  _63
REMARK   23  A    between atoms: _62  and  _65
REMARK   24  A    between atoms: _65  and  _66
REMARK   25  A    between atoms: _69  and  _71
REMARK   26  A    between atoms: _71  and  _72
REMARK   27  A    between atoms: _75  and  _77
REMARK   28  A    between atoms: _77  and  _78
REMARK   29  A    between atoms: _77  and  _80
REMARK   30  A    between atoms: _80  and  _81
REMARK   31  A    between atoms: _81  and  _82
REMARK   32  A    between atoms: _85  and  _87
REMARK   33  A    between atoms: _87  and  _88
REMARK   34  A    between atoms: _87  and  _90
REMARK   35  A    between atoms: _90  and  _91
REMARK   36  A    between atoms: _96  and  _98
REMARK   37  A    between atoms: _98  and  _99
REMARK   38  A    between atoms: _98  and  _101
REMARK   39  A    between atoms: _101  and  _102
REMARK   40  A    between atoms: _105  and  _107
REMARK   41  A    between atoms: _107  and  _108
REMARK   42  A    between atoms: _111  and  _113
REMARK   43  A    between atoms: _113  and  _114
REMARK   44  A    between atoms: _116  and  _118
REMARK   45  A    between atoms: _118  and  _119
REMARK   46  A    between atoms: _122  and  _124
REMARK   47  A    between atoms: _124  and  _125
REMARK   48  A    between atoms: _124  and  _127
REMARK   49  A    between atoms: _127  and  _128
REMARK   50  A    between atoms: _131  and  _133
REMARK   51  A    between atoms: _133  and  _134
REMARK   52  A    between atoms: _133  and  _136
REMARK   53  A    between atoms: _136  and  _137
REMARK   54  A    between atoms: _139  and  _141
REMARK   55  A    between atoms: _141  and  _142
REMARK   56  A    between atoms: _145  and  _147
REMARK   57  A    between atoms: _147  and  _148
REMARK   58  A    between atoms: _147  and  _150
REMARK   59  A    between atoms: _150  and  _151
REMARK   60  A    between atoms: _156  and  _158
REMARK   61  A    between atoms: _158  and  _159
REMARK   62  A    between atoms: _158  and  _161
REMARK   63  A    between atoms: _161  and  _162
REMARK   64  A    between atoms: _162  and  _163
REMARK   65  A    between atoms: _166  and  _168
REMARK   66  A    between atoms: _168  and  _169
REMARK   67  A    between atoms: _168  and  _171
REMARK   68  A    between atoms: _171  and  _172
REMARK   69  A    between atoms: _177  and  _178
REMARK   70  A    between atoms: _180  and  _182
REMARK   71  A    between atoms: _182  and  _183
REMARK   72  A    between atoms: _182  and  _185
REMARK   73  A    between atoms: _185  and  _186
REMARK   74  A    between atoms: _191  and  _192
REMARK   75  A    between atoms: _195  and  _196
REMARK   76  A    between atoms: _201  and  _203
REMARK   77  A    between atoms: _203  and  _204
REMARK   78  A    between atoms: _206  and  _208
REMARK   79  A    between atoms: _208  and  _209
REMARK   80  A    between atoms: _208  and  _211
REMARK   81  A    between atoms: _211  and  _212
REMARK   82  A    between atoms: _218  and  _220
REMARK   83  A    between atoms: _220  and  _221
REMARK   84  A    between atoms: _220  and  _223
REMARK   85  A    between atoms: _223  and  _224
REMARK   86  A    between atoms: _224  and  _225
REMARK   87  A    between atoms: _225  and  _226
REMARK   88  A    between atoms: _235  and  _237
REMARK   89  A    between atoms: _237  and  _238
REMARK   90  A    between atoms: _237  and  _240
REMARK   91  A    between atoms: _240  and  _241
REMARK   92  A    between atoms: _244  and  _246
REMARK   93  A    between atoms: _246  and  _247
REMARK   94  A    between atoms: _246  and  _249
REMARK   95  A    between atoms: _249  and  _250
REMARK   96  A    between atoms: _253  and  _255
REMARK   97  A    between atoms: _255  and  _256
REMARK   98  A    between atoms: _255  and  _258
REMARK   99  A    between atoms: _261  and  _263
REMARK  100  A    between atoms: _263  and  _264
REMARK  101  A    between atoms: _263  and  _266
REMARK  102  A    between atoms: _266  and  _267
REMARK  103  A    between atoms: _270  and  _272
REMARK  104  A    between atoms: _272  and  _273
REMARK  105  A    between atoms: _272  and  _275
REMARK  106  A    between atoms: _275  and  _276
REMARK  107  A    between atoms: _282  and  _283
REMARK  108  A    between atoms: _288  and  _290
REMARK  109  A    between atoms: _290  and  _291
REMARK  110  A    between atoms: _290  and  _293
REMARK  111  A    between atoms: _293  and  _294
REMARK  112  A    between atoms: _296  and  _298
REMARK  113  A    between atoms: _298  and  _299
REMARK  114  A    between atoms: _298  and  _301
REMARK  115  A    between atoms: _301  and  _302
REMARK  116  A    between atoms: _308  and  _309
REMARK  117  A    between atoms: _314  and  _316
REMARK  118  A    between atoms: _316  and  _317
REMARK  119  A    between atoms: _316  and  _319
REMARK  120  A    between atoms: _319  and  _320
REMARK  121  A    between atoms: _323  and  _325
REMARK  122  A    between atoms: _325  and  _326
REMARK  123  A    between atoms: _325  and  _328
REMARK  124  A    between atoms: _328  and  _329
REMARK  125  A    between atoms: _329  and  _330
REMARK  126  A    between atoms: _333  and  _335
REMARK  127  A    between atoms: _335  and  _336
REMARK  128  A    between atoms: _335  and  _338
REMARK  129  A    between atoms: _338  and  _339
REMARK  130  A    between atoms: _342  and  _344
REMARK  131  A    between atoms: _344  and  _345
REMARK  132  A    between atoms: _344  and  _347
REMARK  133  A    between atoms: _347  and  _348
REMARK  134  A    between atoms: _353  and  _354
REMARK  135  A    between atoms: _356  and  _358
REMARK  136  A    between atoms: _358  and  _359
REMARK  137  A    between atoms: _358  and  _361
REMARK  138  A    between atoms: _364  and  _366
REMARK  139  A    between atoms: _366  and  _367
REMARK  140  A    between atoms: _366  and  _369
REMARK  141  A    between atoms: _369  and  _370
REMARK  142  A    between atoms: _375  and  _376
REMARK  143  A    between atoms: _378  and  _380
REMARK  144  A    between atoms: _380  and  _381
REMARK  145  A    between atoms: _380  and  _383
REMARK  146  A    between atoms: _383  and  _384
REMARK  147  A    between atoms: _386  and  _388
REMARK  148  A    between atoms: _388  and  _389
REMARK  149  A    between atoms: _388  and  _391
REMARK  150  A    between atoms: _391  and  _392
REMARK  151  A    between atoms: _395  and  _397
REMARK  152  A    between atoms: _397  and  _398
REMARK  153  A    between atoms: _397  and  _400
REMARK  154  A    between atoms: _400  and  _401
REMARK  155  A    between atoms: _403  and  _405
REMARK  156  A    between atoms: _405  and  _406
REMARK  157  A    between atoms: _405  and  _408
REMARK  158  A    between atoms: _408  and  _409
REMARK  159  A    between atoms: _409  and  _410
REMARK  160  A    between atoms: _410  and  _411
REMARK  161  A    between atoms: _411  and  _412
REMARK  162  A    between atoms: _416  and  _418
REMARK  163  A    between atoms: _418  and  _419
REMARK  164  A    between atoms: _418  and  _421
REMARK  165  A    between atoms: _421  and  _422
REMARK  166  A    between atoms: _426  and  _427
REMARK  167  A    between atoms: _432  and  _434
REMARK  168  A    between atoms: _434  and  _435
REMARK  169  A    between atoms: _437  and  _439
REMARK  170  A    between atoms: _439  and  _440
REMARK  171  A    between atoms: _439  and  _442
REMARK  172  A    between atoms: _442  and  _443
REMARK  173  A    between atoms: _449  and  _451
REMARK  174  A    between atoms: _451  and  _452
REMARK  175  A    between atoms: _451  and  _454
REMARK  176  A    between atoms: _454  and  _455
REMARK  177  A    between atoms: _455  and  _456
REMARK  178  A    between atoms: _456  and  _457
REMARK  179  A    between atoms: _466  and  _468
REMARK  180  A    between atoms: _468  and  _469
REMARK  181  A    between atoms: _468  and  _471
REMARK  182  A    between atoms: _474  and  _476
REMARK  183  A    between atoms: _476  and  _477
REMARK  184  A    between atoms: _479  and  _481
REMARK  185  A    between atoms: _481  and  _482
REMARK  186  A    between atoms: _485  and  _487
REMARK  187  A    between atoms: _487  and  _488
REMARK  188  A    between atoms: _487  and  _490
REMARK  189  A    between atoms: _490  and  _491
REMARK  190  A    between atoms: _494  and  _496
REMARK  191  A    between atoms: _496  and  _497
REMARK  192  A    between atoms: _496  and  _499
REMARK  193  A    between atoms: _499  and  _500
REMARK  194  A    between atoms: _506  and  _508
REMARK  195  A    between atoms: _508  and  _509
REMARK  196  A    between atoms: _508  and  _511
REMARK  197  A    between atoms: _511  and  _512
REMARK  198  A    between atoms: _514  and  _516
REMARK  199  A    between atoms: _516  and  _517
REMARK  200  A    between atoms: _516  and  _519
REMARK  201  A    between atoms: _521  and  _523
REMARK  202  A    between atoms: _523  and  _524
REMARK  203  A    between atoms: _523  and  _526
REMARK  204  A    between atoms: _526  and  _527
REMARK  205  A    between atoms: _527  and  _528
REMARK  206  A    between atoms: _528  and  _529
REMARK  207  A    between atoms: _538  and  _540
REMARK  208  A    between atoms: _540  and  _541
REMARK  209  A    between atoms: _540  and  _543
REMARK  210  A    between atoms: _545  and  _547
REMARK  211  A    between atoms: _547  and  _548
REMARK  212  A    between atoms: _547  and  _550
REMARK  213  A    between atoms: _550  and  _551
REMARK  214  A    between atoms: _556  and  _558
REMARK  215  A    between atoms: _558  and  _559
REMARK  216  A    between atoms: _558  and  _561
REMARK  217  A    between atoms: _561  and  _562
REMARK  218  A    between atoms: _565  and  _567
REMARK  219  A    between atoms: _567  and  _568
REMARK  220  A    between atoms: _567  and  _570
REMARK  221  A    between atoms: _570  and  _571
REMARK  222  A    between atoms: _571  and  _572
REMARK  223  A    between atoms: _577  and  _579
REMARK  224  A    between atoms: _579  and  _580
REMARK  225  A    between atoms: _579  and  _582
REMARK  226  A    between atoms: _582  and  _583
REMARK  227  A    between atoms: _586  and  _588
REMARK  228  A    between atoms: _588  and  _589
REMARK  229  A    between atoms: _588  and  _591
REMARK  230  A    between atoms: _591  and  _592
REMARK  231  A    between atoms: _597  and  _598
REMARK  232  A    between atoms: _600  and  _602
REMARK  233  A    between atoms: _602  and  _603
REMARK  234  A    between atoms: _602  and  _605
REMARK  235  A    between atoms: _605  and  _606
REMARK  236  A    between atoms: _608  and  _610
REMARK  237  A    between atoms: _610  and  _611
REMARK  238  A    between atoms: _610  and  _613
REMARK  239  A    between atoms: _613  and  _614
REMARK  240  A    between atoms: _620  and  _622
REMARK  241  A    between atoms: _622  and  _623
REMARK  242  A    between atoms: _622  and  _625
REMARK  243  A    between atoms: _625  and  _626
REMARK                            x       y       z     vdW  Elec       q    Type
REMARK                         _______ _______ _______ _____ _____    ______ ____
ROOT
ATOM      1  CG  TRP A   1      10.089  -0.442  27.275  0.00  0.00    -0.002 A 
ATOM      2  CD2 TRP A   1      11.479  -0.279  27.584  0.00  0.00    +0.013 A 
ATOM      3  CE2 TRP A   1      11.956  -1.526  28.043  0.00  0.00    +0.056 A 
ATOM      4  CZ2 TRP A   1      13.284  -1.724  28.435  0.00  0.00    +0.017 A 
ATOM      5  CH2 TRP A   1      14.134  -0.648  28.361  0.00  0.00    +0.001 A 
ATOM      6  CZ3 TRP A   1      13.691   0.607  27.908  0.00  0.00    +0.000 A 
ATOM      7  NE1 TRP A   1      10.903  -2.404  28.013  0.00  0.00    -0.352 N 
ATOM      8  HE1 TRP A   1      10.942  -3.404  28.295  0.00  0.00    +0.166 HD
ATOM      9  CE3 TRP A   1      12.369   0.803  27.518  0.00  0.00    +0.001 A 
ATOM     10  CD1 TRP A   1       9.788  -1.747  27.550  0.00  0.00    +0.068 A 
ENDROOT
BRANCH   1  11
ATOM     11  CB  TRP A   1       9.161   0.614  26.743  0.00  0.00    +0.053 C 
BRANCH  11  12
ATOM     12  CA  TRP A   1       7.684   0.208  26.662  0.00  0.00    +0.137 C 
BRANCH  12  13
ATOM     13  N   TRP A   1       6.916   1.294  26.065  0.00  0.00    -0.239 NA
ATOM     14  H   TRP A   1       7.401   2.184  25.831  0.00  0.00    +0.142 HD
ENDBRANCH  12  13
BRANCH  12  15
ATOM     15  C   TRP A   1       7.137  -0.105  28.053  0.00  0.00    +0.224 C 
ATOM     16  O   TRP A   1       6.939  -1.269  28.406  0.00  0.00    -0.287 OA
ENDBRANCH  12  15
ENDBRANCH  11  12
ENDBRANCH   1  11
TORSDOF 4
REMARK  Name = ../refined-set-2016/1m7y/1m7y_pocket.pdb
REMARK  243 active torsions:
REMARK  status: ('A' for Active; 'I' for Inactive)
REMARK    1  A    between atoms: _1  and  _3
REMARK    2  A    between atoms: _3  and  _4
REMARK    3  A    between atoms: _3  and  _6
REMARK    4  A    between atoms: _6  and  _7
REMARK    5  A    between atoms: _12  and  _13
REMARK    6  A    between atoms: _15  and  _17
REMARK    7  A    between atoms: _17  and  _18
REMARK    8  A    between atoms: _17  and  _20
REMARK    9  A    between atoms: _20  and  _21
REMARK   10  A    between atoms: _27  and  _29
REMARK   11  A    between atoms: _29  and  _30
REMARK   12  A    between atoms: _29  and  _32
REMARK   13  A    between atoms: _32  and  _33
REMARK   14  A    between atoms: _43  and  _45
REMARK   15  A    between atoms: _45  and  _46
REMARK   16  A    between atoms: _45  and  _48
REMARK   17  A    between atoms: _48  and  _49
REMARK   18  A    between atoms: _49  and  _50
REMARK   19  A    between atoms: _55  and  _57
REMARK   20  A    between atoms: _57  and  _58
REMARK   21  A    between atoms: _60  and  _62
REMARK   22  A    between atoms: _62  and  _63
REMARK   23  A    between atoms: _62  and  _65
REMARK   24  A    between atoms: _65  and  _66
REMARK   25  A    between atoms: _69  and  _71
REMARK   26  A    between atoms: _71  and  _72
REMARK   27  A    between atoms: _75  and  _77
REMARK   28  A    between atoms: _77  and  _78
REMARK   29  A    between atoms: _77  and  _80
REMARK   30  A    between atoms: _80  and  _81
REMARK   31  A    between atoms: _81  and  _82
REMARK   32  A    between atoms: _85  and  _87
REMARK   33  A    between atoms: _87  and  _88
REMARK   34  A    between atoms: _87  and  _90
REMARK   35  A    between atoms: _90  and  _91
REMARK   36  A    between atoms: _96  and  _98
REMARK   37  A    between atoms: _98  and  _99
REMARK   38  A    between atoms: _98  and  _101
REMARK   39  A    between atoms: _101  and  _102
REMARK   40  A    between atoms: _105  and  _107
REMARK   41  A    between atoms: _107  and  _108
REMARK   42  A    between atoms: _111  and  _113
REMARK   43  A    between atoms: _113  and  _114
REMARK   44  A    between atoms: _116  and  _118
REMARK   45  A    between atoms: _118  and  _119
REMARK   46  A    between atoms: _122  and  _124
REMARK   47  A    between atoms: _124  and  _125
REMARK   48  A    between atoms: _124  and  _127
REMARK   49  A    between atoms: _127  and  _128
REMARK   50  A    between atoms: _131  and  _133
REMARK   51  A    between atoms: _133  and  _134
REMARK   52  A    between atoms: _133  and  _136
REMARK   53  A    between atoms: _136  and  _137
REMARK   54  A    between atoms: _139  and  _141
REMARK   55  A    between atoms: _141  and  _142
REMARK   56  A    between atoms: _145  and  _147
REMARK   57  A    between atoms: _147  and  _148
REMARK   58  A    between atoms: _147  and  _150
REMARK   59  A    between atoms: _150  and  _151
REMARK   60  A    between atoms: _156  and  _158
REMARK   61  A    between atoms: _158  and  _159
REMARK   62  A    between atoms: _158  and  _161
REMARK   63  A    between atoms: _161  and  _162
REMARK   64  A    between atoms: _162  and  _163
REMARK   65  A    between atoms: _166  and  _168
REMARK   66  A    between atoms: _168  and  _169
REMARK   67  A    between atoms: _168  and  _171
REMARK   68  A    between atoms: _171  and  _172
REMARK   69  A    between atoms: _177  and  _178
REMARK   70  A    between atoms: _180  and  _182
REMARK   71  A    between atoms: _182  and  _183
REMARK   72  A    between atoms: _182  and  _185
REMARK   73  A    between atoms: _185  and  _186
REMARK   74  A    between atoms: _191  and  _192
REMARK   75  A    between atoms: _195  and  _196
REMARK   76  A    between atoms: _201  and  _203
REMARK   77  A    between atoms: _203  and  _204
REMARK   78  A    between atoms: _206  and  _208
REMARK   79  A    between atoms: _208  and  _209
REMARK   80  A    between atoms: _208  and  _211
REMARK   81  A    between atoms: _211  and  _212
REMARK   82  A    between atoms: _218  and  _220
REMARK   83  A    between atoms: _220  and  _221
REMARK   84  A    between atoms: _220  and  _223
REMARK   85  A    between atoms: _223  and  _224
REMARK   86  A    between atoms: _224  and  _225
REMARK   87  A    between atoms: _225  and  _226
REMARK   88  A    between atoms: _235  and  _237
REMARK   89  A    between atoms: _237  and  _238
REMARK   90  A    between atoms: _237  and  _240
REMARK   91  A    between atoms: _240  and  _241
REMARK   92  A    between atoms: _244  and  _246
REMARK   93  A    between atoms: _246  and  _247
REMARK   94  A    between atoms: _246  and  _249
REMARK   95  A    between atoms: _249  and  _250
REMARK   96  A    between atoms: _253  and  _255
REMARK   97  A    between atoms: _255  and  _256
REMARK   98  A    between atoms: _255  and  _258
REMARK   99  A    between atoms: _261  and  _263
REMARK  100  A    between atoms: _263  and  _264
REMARK  101  A    between atoms: _263  and  _266
REMARK  102  A    between atoms: _266  and  _267
REMARK  103  A    between atoms: _270  and  _272
REMARK  104  A    between atoms: _272  and  _273
REMARK  105  A    between atoms: _272  and  _275
REMARK  106  A    between atoms: _275  and  _276
REMARK  107  A    between atoms: _282  and  _283
REMARK  108  A    between atoms: _288  and  _290
REMARK  109  A    between atoms: _290  and  _291
REMARK  110  A    between atoms: _290  and  _293
REMARK  111  A    between atoms: _293  and  _294
REMARK  112  A    between atoms: _296  and  _298
REMARK  113  A    between atoms: _298  and  _299
REMARK  114  A    between atoms: _298  and  _301
REMARK  115  A    between atoms: _301  and  _302
REMARK  116  A    between atoms: _308  and  _309
REMARK  117  A    between atoms: _314  and  _316
REMARK  118  A    between atoms: _316  and  _317
REMARK  119  A    between atoms: _316  and  _319
REMARK  120  A    between atoms: _319  and  _320
REMARK  121  A    between atoms: _323  and  _325
REMARK  122  A    between atoms: _325  and  _326
REMARK  123  A    between atoms: _325  and  _328
REMARK  124  A    between atoms: _328  and  _329
REMARK  125  A    between atoms: _329  and  _330
REMARK  126  A    between atoms: _333  and  _335
REMARK  127  A    between atoms: _335  and  _336
REMARK  128  A    between atoms: _335  and  _338
REMARK  129  A    between atoms: _338  and  _339
REMARK  130  A    between atoms: _342  and  _344
REMARK  131  A    between atoms: _344  and  _345
REMARK  132  A    between atoms: _344  and  _347
REMARK  133  A    between atoms: _347  and  _348
REMARK  134  A    between atoms: _353  and  _354
REMARK  135  A    between atoms: _356  and  _358
REMARK  136  A    between atoms: _358  and  _359
REMARK  137  A    between atoms: _358  and  _361
REMARK  138  A    between atoms: _364  and  _366
REMARK  139  A    between atoms: _366  and  _367
REMARK  140  A    between atoms: _366  and  _369
REMARK  141  A    between atoms: _369  and  _370
REMARK  142  A    between atoms: _375  and  _376
REMARK  143  A    between atoms: _378  and  _380
REMARK  144  A    between atoms: _380  and  _381
REMARK  145  A    between atoms: _380  and  _383
REMARK  146  A    between atoms: _383  and  _384
REMARK  147  A    between atoms: _386  and  _388
REMARK  148  A    between atoms: _388  and  _389
REMARK  149  A    between atoms: _388  and  _391
REMARK  150  A    between atoms: _391  and  _392
REMARK  151  A    between atoms: _395  and  _397
REMARK  152  A    between atoms: _397  and  _398
REMARK  153  A    between atoms: _397  and  _400
REMARK  154  A    between atoms: _400  and  _401
REMARK  155  A    between atoms: _403  and  _405
REMARK  156  A    between atoms: _405  and  _406
REMARK  157  A    between atoms: _405  and  _408
REMARK  158  A    between atoms: _408  and  _409
REMARK  159  A    between atoms: _409  and  _410
REMARK  160  A    between atoms: _410  and  _411
REMARK  161  A    between atoms: _411  and  _412
REMARK  162  A    between atoms: _416  and  _418
REMARK  163  A    between atoms: _418  and  _419
REMARK  164  A    between atoms: _418  and  _421
REMARK  165  A    between atoms: _421  and  _422
REMARK  166  A    between atoms: _426  and  _427
REMARK  167  A    between atoms: _432  and  _434
REMARK  168  A    between atoms: _434  and  _435
REMARK  169  A    between atoms: _437  and  _439
REMARK  170  A    between atoms: _439  and  _440
REMARK  171  A    between atoms: _439  and  _442
REMARK  172  A    between atoms: _442  and  _443
REMARK  173  A    between atoms: _449  and  _451
REMARK  174  A    between atoms: _451  and  _452
REMARK  175  A    between atoms: _451  and  _454
REMARK  176  A    between atoms: _454  and  _455
REMARK  177  A    between atoms: _455  and  _456
REMARK  178  A    between atoms: _456  and  _457
REMARK  179  A    between atoms: _466  and  _468
REMARK  180  A    between atoms: _468  and  _469
REMARK  181  A    between atoms: _468  and  _471
REMARK  182  A    between atoms: _474  and  _476
REMARK  183  A    between atoms: _476  and  _477
REMARK  184  A    between atoms: _479  and  _481
REMARK  185  A    between atoms: _481  and  _482
REMARK  186  A    between atoms: _485  and  _487
REMARK  187  A    between atoms: _487  and  _488
REMARK  188  A    between atoms: _487  and  _490
REMARK  189  A    between atoms: _490  and  _491
REMARK  190  A    between atoms: _494  and  _496
REMARK  191  A    between atoms: _496  and  _497
REMARK  192  A    between atoms: _496  and  _499
REMARK  193  A    between atoms: _499  and  _500
REMARK  194  A    between atoms: _506  and  _508
REMARK  195  A    between atoms: _508  and  _509
REMARK  196  A    between atoms: _508  and  _511
REMARK  197  A    between atoms: _511  and  _512
REMARK  198  A    between atoms: _514  and  _516
REMARK  199  A    between atoms: _516  and  _517
REMARK  200  A    between atoms: _516  and  _519
REMARK  201  A    between atoms: _521  and  _523
REMARK  202  A    between atoms: _523  and  _524
REMARK  203  A    between atoms: _523  and  _526
REMARK  204  A    between atoms: _526  and  _527
REMARK  205  A    between atoms: _527  and  _528
REMARK  206  A    between atoms: _528  and  _529
REMARK  207  A    between atoms: _538  and  _540
REMARK  208  A    between atoms: _540  and  _541
REMARK  209  A    between atoms: _540  and  _543
REMARK  210  A    between atoms: _545  and  _547
REMARK  211  A    between atoms: _547  and  _548
REMARK  212  A    between atoms: _547  and  _550
REMARK  213  A    between atoms: _550  and  _551
REMARK  214  A    between atoms: _556  and  _558
REMARK  215  A    between atoms: _558  and  _559
REMARK  216  A    between atoms: _558  and  _561
REMARK  217  A    between atoms: _561  and  _562
REMARK  218  A    between atoms: _565  and  _567
REMARK  219  A    between atoms: _567  and  _568
REMARK  220  A    between atoms: _567  and  _570
REMARK  221  A    between atoms: _570  and  _571
REMARK  222  A    between atoms: _571  and  _572
REMARK  223  A    between atoms: _577  and  _579
REMARK  224  A    between atoms: _579  and  _580
REMARK  225  A    between atoms: _579  and  _582
REMARK  226  A    between atoms: _582  and  _583
REMARK  227  A    between atoms: _586  and  _588
REMARK  228  A    between atoms: _588  and  _589
REMARK  229  A    between atoms: _588  and  _591
REMARK  230  A    between atoms: _591  and  _592
REMARK  231  A    between atoms: _597  and  _598
REMARK  232  A    between atoms: _600  and  _602
REMARK  233  A    between atoms: _602  and  _603
REMARK  234  A    between atoms: _602  and  _605
REMARK  235  A    between atoms: _605  and  _606
REMARK  236  A    between atoms: _608  and  _610
REMARK  237  A    between atoms: _610  and  _611
REMARK  238  A    between atoms: _610  and  _613
REMARK  239  A    between atoms: _613  and  _614
REMARK  240  A    between atoms: _620  and  _622
REMARK  241  A    between atoms: _622  and  _623
REMARK  242  A    between atoms: _622  and  _625
REMARK  243  A    between atoms: _625  and  _626
REMARK                            x       y       z     vdW  Elec       q    Type
REMARK                         _______ _______ _______ _____ _____    ______ ____
ROOT
ATOM      1  CB  GLN A   1       7.145  -6.576  23.052  0.00  0.00    +0.035 C 
ENDROOT
BRANCH   1   2
ATOM      2  CA  GLN A   1       6.108  -6.103  22.029  0.00  0.00    +0.134 C 
BRANCH   2   3
ATOM      3  N   GLN A   1       4.923  -6.951  22.114  0.00  0.00    -0.239 NA
ATOM      4  H   GLN A   1       5.019  -7.911  22.503  0.00  0.00    +0.142 HD
ENDBRANCH   2   3
BRANCH   2   5
ATOM      5  C   GLN A   1       6.756  -6.042  20.648  0.00  0.00    +0.224 C 
ATOM      6  O   GLN A   1       7.334  -7.023  20.181  0.00  0.00    -0.287 OA
ENDBRANCH   2   5
ENDBRANCH   1   2
BRANCH   1   7
ATOM      7  CG  GLN A   1       8.437  -5.777  23.069  0.00  0.00    +0.087 C 
BRANCH   7   8
ATOM      8  CD  GLN A   1       8.224  -4.324  23.428  0.00  0.00    +0.219 C 
ATOM      9  NE2 GLN A   1       8.585  -3.957  24.654  0.00  0.00    -0.329 N 
ATOM     10 HE21 GLN A   1       8.993  -4.656  25.307  0.00  0.00    +0.145 HD
ATOM     11 HE22 GLN A   1       8.459  -2.971  24.960  0.00  0.00    +0.145 HD
ATOM     12  OE1 GLN A   1       7.737  -3.538  22.618  0.00  0.00    -0.275 OA
ENDBRANCH   7   8
ENDBRANCH   1   7
TORSDOF 5
REMARK  Name = ../refined-set-2016/1m7y/1m7y_pocket.pdb
REMARK  243 active torsions:
REMARK  status: ('A' for Active; 'I' for Inactive)
REMARK    1  A    between atoms: _1  and  _3
REMARK    2  A    between atoms: _3  and  _4
REMARK    3  A    between atoms: _3  and  _6
REMARK    4  A    between atoms: _6  and  _7
REMARK    5  A    between atoms: _12  and  _13
REMARK    6  A    between atoms: _15  and  _17
REMARK    7  A    between atoms: _17  and  _18
REMARK    8  A    between atoms: _17  and  _20
REMARK    9  A    between atoms: _20  and  _21
REMARK   10  A    between atoms: _27  and  _29
REMARK   11  A    between atoms: _29  and  _30
REMARK   12  A    between atoms: _29  and  _32
REMARK   13  A    between atoms: _32  and  _33
REMARK   14  A    between atoms: _43  and  _45
REMARK   15  A    between atoms: _45  and  _46
REMARK   16  A    between atoms: _45  and  _48
REMARK   17  A    between atoms: _48  and  _49
REMARK   18  A    between atoms: _49  and  _50
REMARK   19  A    between atoms: _55  and  _57
REMARK   20  A    between atoms: _57  and  _58
REMARK   21  A    between atoms: _60  and  _62
REMARK   22  A    between atoms: _62  and  _63
REMARK   23  A    between atoms: _62  and  _65
REMARK   24  A    between atoms: _65  and  _66
REMARK   25  A    between atoms: _69  and  _71
REMARK   26  A    between atoms: _71  and  _72
REMARK   27  A    between atoms: _75  and  _77
REMARK   28  A    between atoms: _77  and  _78
REMARK   29  A    between atoms: _77  and  _80
REMARK   30  A    between atoms: _80  and  _81
REMARK   31  A    between atoms: _81  and  _82
REMARK   32  A    between atoms: _85  and  _87
REMARK   33  A    between atoms: _87  and  _88
REMARK   34  A    between atoms: _87  and  _90
REMARK   35  A    between atoms: _90  and  _91
REMARK   36  A    between atoms: _96  and  _98
REMARK   37  A    between atoms: _98  and  _99
REMARK   38  A    between atoms: _98  and  _101
REMARK   39  A    between atoms: _101  and  _102
REMARK   40  A    between atoms: _105  and  _107
REMARK   41  A    between atoms: _107  and  _108
REMARK   42  A    between atoms: _111  and  _113
REMARK   43  A    between atoms: _113  and  _114
REMARK   44  A    between atoms: _116  and  _118
REMARK   45  A    between atoms: _118  and  _119
REMARK   46  A    between atoms: _122  and  _124
REMARK   47  A    between atoms: _124  and  _125
REMARK   48  A    between atoms: _124  and  _127
REMARK   49  A    between atoms: _127  and  _128
REMARK   50  A    between atoms: _131  and  _133
REMARK   51  A    between atoms: _133  and  _134
REMARK   52  A    between atoms: _133  and  _136
REMARK   53  A    between atoms: _136  and  _137
REMARK   54  A    between atoms: _139  and  _141
REMARK   55  A    between atoms: _141  and  _142
REMARK   56  A    between atoms: _145  and  _147
REMARK   57  A    between atoms: _147  and  _148
REMARK   58  A    between atoms: _147  and  _150
REMARK   59  A    between atoms: _150  and  _151
REMARK   60  A    between atoms: _156  and  _158
REMARK   61  A    between atoms: _158  and  _159
REMARK   62  A    between atoms: _158  and  _161
REMARK   63  A    between atoms: _161  and  _162
REMARK   64  A    between atoms: _162  and  _163
REMARK   65  A    between atoms: _166  and  _168
REMARK   66  A    between atoms: _168  and  _169
REMARK   67  A    between atoms: _168  and  _171
REMARK   68  A    between atoms: _171  and  _172
REMARK   69  A    between atoms: _177  and  _178
REMARK   70  A    between atoms: _180  and  _182
REMARK   71  A    between atoms: _182  and  _183
REMARK   72  A    between atoms: _182  and  _185
REMARK   73  A    between atoms: _185  and  _186
REMARK   74  A    between atoms: _191  and  _192
REMARK   75  A    between atoms: _195  and  _196
REMARK   76  A    between atoms: _201  and  _203
REMARK   77  A    between atoms: _203  and  _204
REMARK   78  A    between atoms: _206  and  _208
REMARK   79  A    between atoms: _208  and  _209
REMARK   80  A    between atoms: _208  and  _211
REMARK   81  A    between atoms: _211  and  _212
REMARK   82  A    between atoms: _218  and  _220
REMARK   83  A    between atoms: _220  and  _221
REMARK   84  A    between atoms: _220  and  _223
REMARK   85  A    between atoms: _223  and  _224
REMARK   86  A    between atoms: _224  and  _225
REMARK   87  A    between atoms: _225  and  _226
REMARK   88  A    between atoms: _235  and  _237
REMARK   89  A    between atoms: _237  and  _238
REMARK   90  A    between atoms: _237  and  _240
REMARK   91  A    between atoms: _240  and  _241
REMARK   92  A    between atoms: _244  and  _246
REMARK   93  A    between atoms: _246  and  _247
REMARK   94  A    between atoms: _246  and  _249
REMARK   95  A    between atoms: _249  and  _250
REMARK   96  A    between atoms: _253  and  _255
REMARK   97  A    between atoms: _255  and  _256
REMARK   98  A    between atoms: _255  and  _258
REMARK   99  A    between atoms: _261  and  _263
REMARK  100  A    between atoms: _263  and  _264
REMARK  101  A    between atoms: _263  and  _266
REMARK  102  A    between atoms: _266  and  _267
REMARK  103  A    between atoms: _270  and  _272
REMARK  104  A    between atoms: _272  and  _273
REMARK  105  A    between atoms: _272  and  _275
REMARK  106  A    between atoms: _275  and  _276
REMARK  107  A    between atoms: _282  and  _283
REMARK  108  A    between atoms: _288  and  _290
REMARK  109  A    between atoms: _290  and  _291
REMARK  110  A    between atoms: _290  and  _293
REMARK  111  A    between atoms: _293  and  _294
REMARK  112  A    between atoms: _296  and  _298
REMARK  113  A    between atoms: _298  and  _299
REMARK  114  A    between atoms: _298  and  _301
REMARK  115  A    between atoms: _301  and  _302
REMARK  116  A    between atoms: _308  and  _309
REMARK  117  A    between atoms: _314  and  _316
REMARK  118  A    between atoms: _316  and  _317
REMARK  119  A    between atoms: _316  and  _319
REMARK  120  A    between atoms: _319  and  _320
REMARK  121  A    between atoms: _323  and  _325
REMARK  122  A    between atoms: _325  and  _326
REMARK  123  A    between atoms: _325  and  _328
REMARK  124  A    between atoms: _328  and  _329
REMARK  125  A    between atoms: _329  and  _330
REMARK  126  A    between atoms: _333  and  _335
REMARK  127  A    between atoms: _335  and  _336
REMARK  128  A    between atoms: _335  and  _338
REMARK  129  A    between atoms: _338  and  _339
REMARK  130  A    between atoms: _342  and  _344
REMARK  131  A    between atoms: _344  and  _345
REMARK  132  A    between atoms: _344  and  _347
REMARK  133  A    between atoms: _347  and  _348
REMARK  134  A    between atoms: _353  and  _354
REMARK  135  A    between atoms: _356  and  _358
REMARK  136  A    between atoms: _358  and  _359
REMARK  137  A    between atoms: _358  and  _361
REMARK  138  A    between atoms: _364  and  _366
REMARK  139  A    between atoms: _366  and  _367
REMARK  140  A    between atoms: _366  and  _369
REMARK  141  A    between atoms: _369  and  _370
REMARK  142  A    between atoms: _375  and  _376
REMARK  143  A    between atoms: _378  and  _380
REMARK  144  A    between atoms: _380  and  _381
REMARK  145  A    between atoms: _380  and  _383
REMARK  146  A    between atoms: _383  and  _384
REMARK  147  A    between atoms: _386  and  _388
REMARK  148  A    between atoms: _388  and  _389
REMARK  149  A    between atoms: _388  and  _391
REMARK  150  A    between atoms: _391  and  _392
REMARK  151  A    between atoms: _395  and  _397
REMARK  152  A    between atoms: _397  and  _398
REMARK  153  A    between atoms: _397  and  _400
REMARK  154  A    between atoms: _400  and  _401
REMARK  155  A    between atoms: _403  and  _405
REMARK  156  A    between atoms: _405  and  _406
REMARK  157  A    between atoms: _405  and  _408
REMARK  158  A    between atoms: _408  and  _409
REMARK  159  A    between atoms: _409  and  _410
REMARK  160  A    between atoms: _410  and  _411
REMARK  161  A    between atoms: _411  and  _412
REMARK  162  A    between atoms: _416  and  _418
REMARK  163  A    between atoms: _418  and  _419
REMARK  164  A    between atoms: _418  and  _421
REMARK  165  A    between atoms: _421  and  _422
REMARK  166  A    between atoms: _426  and  _427
REMARK  167  A    between atoms: _432  and  _434
REMARK  168  A    between atoms: _434  and  _435
REMARK  169  A    between atoms: _437  and  _439
REMARK  170  A    between atoms: _439  and  _440
REMARK  171  A    between atoms: _439  and  _442
REMARK  172  A    between atoms: _442  and  _443
REMARK  173  A    between atoms: _449  and  _451
REMARK  174  A    between atoms: _451  and  _452
REMARK  175  A    between atoms: _451  and  _454
REMARK  176  A    between atoms: _454  and  _455
REMARK  177  A    between atoms: _455  and  _456
REMARK  178  A    between atoms: _456  and  _457
REMARK  179  A    between atoms: _466  and  _468
REMARK  180  A    between atoms: _468  and  _469
REMARK  181  A    between atoms: _468  and  _471
REMARK  182  A    between atoms: _474  and  _476
REMARK  183  A    between atoms: _476  and  _477
REMARK  184  A    between atoms: _479  and  _481
REMARK  185  A    between atoms: _481  and  _482
REMARK  186  A    between atoms: _485  and  _487
REMARK  187  A    between atoms: _487  and  _488
REMARK  188  A    between atoms: _487  and  _490
REMARK  189  A    between atoms: _490  and  _491
REMARK  190  A    between atoms: _494  and  _496
REMARK  191  A    between atoms: _496  and  _497
REMARK  192  A    between atoms: _496  and  _499
REMARK  193  A    between atoms: _499  and  _500
REMARK  194  A    between atoms: _506  and  _508
REMARK  195  A    between atoms: _508  and  _509
REMARK  196  A    between atoms: _508  and  _511
REMARK  197  A    between atoms: _511  and  _512
REMARK  198  A    between atoms: _514  and  _516
REMARK  199  A    between atoms: _516  and  _517
REMARK  200  A    between atoms: _516  and  _519
REMARK  201  A    between atoms: _521  and  _523
REMARK  202  A    between atoms: _523  and  _524
REMARK  203  A    between atoms: _523  and  _526
REMARK  204  A    between atoms: _526  and  _527
REMARK  205  A    between atoms: _527  and  _528
REMARK  206  A    between atoms: _528  and  _529
REMARK  207  A    between atoms: _538  and  _540
REMARK  208  A    between atoms: _540  and  _541
REMARK  209  A    between atoms: _540  and  _543
REMARK  210  A    between atoms: _545  and  _547
REMARK  211  A    between atoms: _547  and  _548
REMARK  212  A    between atoms: _547  and  _550
REMARK  213  A    between atoms: _550  and  _551
REMARK  214  A    between atoms: _556  and  _558
REMARK  215  A    between atoms: _558  and  _559
REMARK  216  A    between atoms: _558  and  _561
REMARK  217  A    between atoms: _561  and  _562
REMARK  218  A    between atoms: _565  and  _567
REMARK  219  A    between atoms: _567  and  _568
REMARK  220  A    between atoms: _567  and  _570
REMARK  221  A    between atoms: _570  and  _571
REMARK  222  A    between atoms: _571  and  _572
REMARK  223  A    between atoms: _577  and  _579
REMARK  224  A    between atoms: _579  and  _580
REMARK  225  A    between atoms: _579  and  _582
REMARK  226  A    between atoms: _582  and  _583
REMARK  227  A    between atoms: _586  and  _588
REMARK  228  A    between atoms: _588  and  _589
REMARK  229  A    between atoms: _588  and  _591
REMARK  230  A    between atoms: _591  and  _592
REMARK  231  A    between atoms: _597  and  _598
REMARK  232  A    between atoms: _600  and  _602
REMARK  233  A    between atoms: _602  and  _603
REMARK  234  A    between atoms: _602  and  _605
REMARK  235  A    between atoms: _605  and  _606
REMARK  236  A    between atoms: _608  and  _610
REMARK  237  A    between atoms: _610  and  _611
REMARK  238  A    between atoms: _610  and  _613
REMARK  239  A    between atoms: _613  and  _614
REMARK  240  A    between atoms: _620  and  _622
REMARK  241  A    between atoms: _622  and  _623
REMARK  242  A    between atoms: _622  and  _625
REMARK  243  A    between atoms: _625  and  _626
REMARK                            x       y       z     vdW  Elec       q    Type
REMARK                         _______ _______ _______ _____ _____    ______ ____
ROOT
ATOM      1  C   ALA A   3      16.053  -4.655  19.160  0.00  0.00    +0.241 C 
ATOM      2  O   ALA A   3      17.207  -4.386  19.484  0.00  0.00    -0.273 OA
ATOM      3  N   GLU A   4      15.539  -5.877  19.273  0.00  0.00    -0.297 N 
ATOM      4  H   GLU A   4      14.548  -6.044  19.006  0.00  0.00    +0.150 HD
ENDROOT
BRANCH   1   5
ATOM      5  CA  ALA A   3      15.134  -3.579  18.601  0.00  0.00    +0.149 C 
ATOM      6  CB  ALA A   3      15.959  -2.518  17.877  0.00  0.00    +0.031 C 
BRANCH   5   9
ATOM      7  C   LEU A   2      13.172  -3.526  20.037  0.00  0.00    +0.241 C 
ATOM      8  O   LEU A   2      12.810  -4.643  19.665  0.00  0.00    -0.273 OA
ATOM      9  N   ALA A   3      14.283  -2.943  19.600  0.00  0.00    -0.297 N 
ATOM     10  H   ALA A   3      14.552  -2.012  19.979  0.00  0.00    +0.150 HD
BRANCH   7  11
ATOM     11  CA  LEU A   2      12.354  -2.736  21.051  0.00  0.00    +0.149 C 
BRANCH  11  13
ATOM     12  C   GLY A   1      10.369  -1.476  20.394  0.00  0.00    +0.240 C 
ATOM     13  N   LEU A   2      10.955  -2.647  20.632  0.00  0.00    -0.297 N 
ATOM     14  H   LEU A   2      10.404  -3.522  20.517  0.00  0.00    +0.150 HD
ATOM     15  O   GLY A   1      10.951  -0.399  20.501  0.00  0.00    -0.274 OA
BRANCH  12  16
ATOM     16  CA  GLY A   1       8.912  -1.501  19.970  0.00  0.00    +0.169 C 
BRANCH  16  17
ATOM     17  N   GLY A   1       8.300  -2.814  19.870  0.00  0.00    -0.236 NA
ATOM     18  H   GLY A   1       8.159  -3.388  20.726  0.00  0.00    +0.142 HD
ENDBRANCH  16  17
ENDBRANCH  12  16
ENDBRANCH  11  13
BRANCH  11  19
ATOM     19  CB  LEU A   2      12.447  -3.396  22.429  0.00  0.00    +0.029 C 
BRANCH  19  20
ATOM     20  CG  LEU A   2      11.642  -2.686  23.523  0.00  0.00    +0.002 C 
ATOM     21  CD2 LEU A   2      11.752  -3.459  24.829  0.00  0.00    +0.000 C 
ATOM     22  CD1 LEU A   2      12.157  -1.263  23.693  0.00  0.00    +0.000 C 
ENDBRANCH  19  20
ENDBRANCH  11  19
ENDBRANCH   7  11
ENDBRANCH   5   9
ENDBRANCH   1   5
BRANCH   3  23
ATOM     23  CA  GLU A   4      16.349  -6.984  19.766  0.00  0.00    +0.149 C 
BRANCH  23  24
ATOM     24  C   GLU A   4      16.226  -8.149  18.787  0.00  0.00    +0.241 C 
ATOM     25  N   ASN A   5      17.190  -9.059  18.834  0.00  0.00    -0.298 N 
ATOM     26  H   ASN A   5      17.946  -8.958  19.541  0.00  0.00    +0.150 HD
ATOM     27  O   GLU A   4      15.272  -8.220  18.008  0.00  0.00    -0.273 OA
BRANCH  25  28
ATOM     28  CA  ASN A   5      17.221 -10.198  17.922  0.00  0.00    +0.146 C 
BRANCH  28  29
ATOM     29  C   ASN A   5      17.178 -11.543  18.644  0.00  0.00    +0.227 C 
ATOM     30  O   ASN A   5      18.157 -11.950  19.264  0.00  0.00    -0.286 OA
ENDBRANCH  28  29
BRANCH  28  31
ATOM     31  CB  ASN A   5      18.487 -10.106  17.066  0.00  0.00    +0.112 C 
BRANCH  31  32
ATOM     32  CG  ASN A   5      18.539 -11.158  15.978  0.00  0.00    +0.222 C 
ATOM     33  OD1 ASN A   5      17.596 -11.922  15.794  0.00  0.00    -0.275 OA
ATOM     34  ND2 ASN A   5      19.646 -11.193  15.242  0.00  0.00    -0.329 N 
ATOM     35 HD21 ASN A   5      20.420 -10.525  15.435  0.00  0.00    +0.145 HD
ATOM     36 HD22 ASN A   5      19.738 -11.888  14.474  0.00  0.00    +0.145 HD
ENDBRANCH  31  32
ENDBRANCH  28  31
ENDBRANCH  25  28
ENDBRANCH  23  24
BRANCH  23  37
ATOM     37  CB  GLU A   4      15.907  -7.408  21.169  0.00  0.00    +0.041 C 
BRANCH  37  38
ATOM     38  CG  GLU A   4      15.910  -6.284  22.218  0.00  0.00    +0.116 C 
BRANCH  38  39
ATOM     39  CD  GLU A   4      17.266  -5.599  22.403  0.00  0.00    +0.365 C 
ATOM     40  OE2 GLU A   4      17.282  -4.459  22.923  0.00  0.00    -0.246 OA
ATOM     41  OE1 GLU A   4      18.309  -6.192  22.054  0.00  0.00    -0.246 OA
ENDBRANCH  38  39
ENDBRANCH  37  38
ENDBRANCH  23  37
ENDBRANCH   3  23
TORSDOF 17
REMARK  Name = ../refined-set-2016/1m7y/1m7y_pocket.pdb
REMARK  243 active torsions:
REMARK  status: ('A' for Active; 'I' for Inactive)
REMARK    1  A    between atoms: _1  and  _3
REMARK    2  A    between atoms: _3  and  _4
REMARK    3  A    between atoms: _3  and  _6
REMARK    4  A    between atoms: _6  and  _7
REMARK    5  A    between atoms: _12  and  _13
REMARK    6  A    between atoms: _15  and  _17
REMARK    7  A    between atoms: _17  and  _18
REMARK    8  A    between atoms: _17  and  _20
REMARK    9  A    between atoms: _20  and  _21
REMARK   10  A    between atoms: _27  and  _29
REMARK   11  A    between atoms: _29  and  _30
REMARK   12  A    between atoms: _29  and  _32
REMARK   13  A    between atoms: _32  and  _33
REMARK   14  A    between atoms: _43  and  _45
REMARK   15  A    between atoms: _45  and  _46
REMARK   16  A    between atoms: _45  and  _48
REMARK   17  A    between atoms: _48  and  _49
REMARK   18  A    between atoms: _49  and  _50
REMARK   19  A    between atoms: _55  and  _57
REMARK   20  A    between atoms: _57  and  _58
REMARK   21  A    between atoms: _60  and  _62
REMARK   22  A    between atoms: _62  and  _63
REMARK   23  A    between atoms: _62  and  _65
REMARK   24  A    between atoms: _65  and  _66
REMARK   25  A    between atoms: _69  and  _71
REMARK   26  A    between atoms: _71  and  _72
REMARK   27  A    between atoms: _75  and  _77
REMARK   28  A    between atoms: _77  and  _78
REMARK   29  A    between atoms: _77  and  _80
REMARK   30  A    between atoms: _80  and  _81
REMARK   31  A    between atoms: _81  and  _82
REMARK   32  A    between atoms: _85  and  _87
REMARK   33  A    between atoms: _87  and  _88
REMARK   34  A    between atoms: _87  and  _90
REMARK   35  A    between atoms: _90  and  _91
REMARK   36  A    between atoms: _96  and  _98
REMARK   37  A    between atoms: _98  and  _99
REMARK   38  A    between atoms: _98  and  _101
REMARK   39  A    between atoms: _101  and  _102
REMARK   40  A    between atoms: _105  and  _107
REMARK   41  A    between atoms: _107  and  _108
REMARK   42  A    between atoms: _111  and  _113
REMARK   43  A    between atoms: _113  and  _114
REMARK   44  A    between atoms: _116  and  _118
REMARK   45  A    between atoms: _118  and  _119
REMARK   46  A    between atoms: _122  and  _124
REMARK   47  A    between atoms: _124  and  _125
REMARK   48  A    between atoms: _124  and  _127
REMARK   49  A    between atoms: _127  and  _128
REMARK   50  A    between atoms: _131  and  _133
REMARK   51  A    between atoms: _133  and  _134
REMARK   52  A    between atoms: _133  and  _136
REMARK   53  A    between atoms: _136  and  _137
REMARK   54  A    between atoms: _139  and  _141
REMARK   55  A    between atoms: _141  and  _142
REMARK   56  A    between atoms: _145  and  _147
REMARK   57  A    between atoms: _147  and  _148
REMARK   58  A    between atoms: _147  and  _150
REMARK   59  A    between atoms: _150  and  _151
REMARK   60  A    between atoms: _156  and  _158
REMARK   61  A    between atoms: _158  and  _159
REMARK   62  A    between atoms: _158  and  _161
REMARK   63  A    between atoms: _161  and  _162
REMARK   64  A    between atoms: _162  and  _163
REMARK   65  A    between atoms: _166  and  _168
REMARK   66  A    between atoms: _168  and  _169
REMARK   67  A    between atoms: _168  and  _171
REMARK   68  A    between atoms: _171  and  _172
REMARK   69  A    between atoms: _177  and  _178
REMARK   70  A    between atoms: _180  and  _182
REMARK   71  A    between atoms: _182  and  _183
REMARK   72  A    between atoms: _182  and  _185
REMARK   73  A    between atoms: _185  and  _186
REMARK   74  A    between atoms: _191  and  _192
REMARK   75  A    between atoms: _195  and  _196
REMARK   76  A    between atoms: _201  and  _203
REMARK   77  A    between atoms: _203  and  _204
REMARK   78  A    between atoms: _206  and  _208
REMARK   79  A    between atoms: _208  and  _209
REMARK   80  A    between atoms: _208  and  _211
REMARK   81  A    between atoms: _211  and  _212
REMARK   82  A    between atoms: _218  and  _220
REMARK   83  A    between atoms: _220  and  _221
REMARK   84  A    between atoms: _220  and  _223
REMARK   85  A    between atoms: _223  and  _224
REMARK   86  A    between atoms: _224  and  _225
REMARK   87  A    between atoms: _225  and  _226
REMARK   88  A    between atoms: _235  and  _237
REMARK   89  A    between atoms: _237  and  _238
REMARK   90  A    between atoms: _237  and  _240
REMARK   91  A    between atoms: _240  and  _241
REMARK   92  A    between atoms: _244  and  _246
REMARK   93  A    between atoms: _246  and  _247
REMARK   94  A    between atoms: _246  and  _249
REMARK   95  A    between atoms: _249  and  _250
REMARK   96  A    between atoms: _253  and  _255
REMARK   97  A    between atoms: _255  and  _256
REMARK   98  A    between atoms: _255  and  _258
REMARK   99  A    between atoms: _261  and  _263
REMARK  100  A    between atoms: _263  and  _264
REMARK  101  A    between atoms: _263  and  _266
REMARK  102  A    between atoms: _266  and  _267
REMARK  103  A    between atoms: _270  and  _272
REMARK  104  A    between atoms: _272  and  _273
REMARK  105  A    between atoms: _272  and  _275
REMARK  106  A    between atoms: _275  and  _276
REMARK  107  A    between atoms: _282  and  _283
REMARK  108  A    between atoms: _288  and  _290
REMARK  109  A    between atoms: _290  and  _291
REMARK  110  A    between atoms: _290  and  _293
REMARK  111  A    between atoms: _293  and  _294
REMARK  112  A    between atoms: _296  and  _298
REMARK  113  A    between atoms: _298  and  _299
REMARK  114  A    between atoms: _298  and  _301
REMARK  115  A    between atoms: _301  and  _302
REMARK  116  A    between atoms: _308  and  _309
REMARK  117  A    between atoms: _314  and  _316
REMARK  118  A    between atoms: _316  and  _317
REMARK  119  A    between atoms: _316  and  _319
REMARK  120  A    between atoms: _319  and  _320
REMARK  121  A    between atoms: _323  and  _325
REMARK  122  A    between atoms: _325  and  _326
REMARK  123  A    between atoms: _325  and  _328
REMARK  124  A    between atoms: _328  and  _329
REMARK  125  A    between atoms: _329  and  _330
REMARK  126  A    between atoms: _333  and  _335
REMARK  127  A    between atoms: _335  and  _336
REMARK  128  A    between atoms: _335  and  _338
REMARK  129  A    between atoms: _338  and  _339
REMARK  130  A    between atoms: _342  and  _344
REMARK  131  A    between atoms: _344  and  _345
REMARK  132  A    between atoms: _344  and  _347
REMARK  133  A    between atoms: _347  and  _348
REMARK  134  A    between atoms: _353  and  _354
REMARK  135  A    between atoms: _356  and  _358
REMARK  136  A    between atoms: _358  and  _359
REMARK  137  A    between atoms: _358  and  _361
REMARK  138  A    between atoms: _364  and  _366
REMARK  139  A    between atoms: _366  and  _367
REMARK  140  A    between atoms: _366  and  _369
REMARK  141  A    between atoms: _369  and  _370
REMARK  142  A    between atoms: _375  and  _376
REMARK  143  A    between atoms: _378  and  _380
REMARK  144  A    between atoms: _380  and  _381
REMARK  145  A    between atoms: _380  and  _383
REMARK  146  A    between atoms: _383  and  _384
REMARK  147  A    between atoms: _386  and  _388
REMARK  148  A    between atoms: _388  and  _389
REMARK  149  A    between atoms: _388  and  _391
REMARK  150  A    between atoms: _391  and  _392
REMARK  151  A    between atoms: _395  and  _397
REMARK  152  A    between atoms: _397  and  _398
REMARK  153  A    between atoms: _397  and  _400
REMARK  154  A    between atoms: _400  and  _401
REMARK  155  A    between atoms: _403  and  _405
REMARK  156  A    between atoms: _405  and  _406
REMARK  157  A    between atoms: _405  and  _408
REMARK  158  A    between atoms: _408  and  _409
REMARK  159  A    between atoms: _409  and  _410
REMARK  160  A    between atoms: _410  and  _411
REMARK  161  A    between atoms: _411  and  _412
REMARK  162  A    between atoms: _416  and  _418
REMARK  163  A    between atoms: _418  and  _419
REMARK  164  A    between atoms: _418  and  _421
REMARK  165  A    between atoms: _421  and  _422
REMARK  166  A    between atoms: _426  and  _427
REMARK  167  A    between atoms: _432  and  _434
REMARK  168  A    between atoms: _434  and  _435
REMARK  169  A    between atoms: _437  and  _439
REMARK  170  A    between atoms: _439  and  _440
REMARK  171  A    between atoms: _439  and  _442
REMARK  172  A    between atoms: _442  and  _443
REMARK  173  A    between atoms: _449  and  _451
REMARK  174  A    between atoms: _451  and  _452
REMARK  175  A    between atoms: _451  and  _454
REMARK  176  A    between atoms: _454  and  _455
REMARK  177  A    between atoms: _455  and  _456
REMARK  178  A    between atoms: _456  and  _457
REMARK  179  A    between atoms: _466  and  _468
REMARK  180  A    between atoms: _468  and  _469
REMARK  181  A    between atoms: _468  and  _471
REMARK  182  A    between atoms: _474  and  _476
REMARK  183  A    between atoms: _476  and  _477
REMARK  184  A    between atoms: _479  and  _481
REMARK  185  A    between atoms: _481  and  _482
REMARK  186  A    between atoms: _485  and  _487
REMARK  187  A    between atoms: _487  and  _488
REMARK  188  A    between atoms: _487  and  _490
REMARK  189  A    between atoms: _490  and  _491
REMARK  190  A    between atoms: _494  and  _496
REMARK  191  A    between atoms: _496  and  _497
REMARK  192  A    between atoms: _496  and  _499
REMARK  193  A    between atoms: _499  and  _500
REMARK  194  A    between atoms: _506  and  _508
REMARK  195  A    between atoms: _508  and  _509
REMARK  196  A    between atoms: _508  and  _511
REMARK  197  A    between atoms: _511  and  _512
REMARK  198  A    between atoms: _514  and  _516
REMARK  199  A    between atoms: _516  and  _517
REMARK  200  A    between atoms: _516  and  _519
REMARK  201  A    between atoms: _521  and  _523
REMARK  202  A    between atoms: _523  and  _524
REMARK  203  A    between atoms: _523  and  _526
REMARK  204  A    between atoms: _526  and  _527
REMARK  205  A    between atoms: _527  and  _528
REMARK  206  A    between atoms: _528  and  _529
REMARK  207  A    between atoms: _538  and  _540
REMARK  208  A    between atoms: _540  and  _541
REMARK  209  A    between atoms: _540  and  _543
REMARK  210  A    between atoms: _545  and  _547
REMARK  211  A    between atoms: _547  and  _548
REMARK  212  A    between atoms: _547  and  _550
REMARK  213  A    between atoms: _550  and  _551
REMARK  214  A    between atoms: _556  and  _558
REMARK  215  A    between atoms: _558  and  _559
REMARK  216  A    between atoms: _558  and  _561
REMARK  217  A    between atoms: _561  and  _562
REMARK  218  A    between atoms: _565  and  _567
REMARK  219  A    between atoms: _567  and  _568
REMARK  220  A    between atoms: _567  and  _570
REMARK  221  A    between atoms: _570  and  _571
REMARK  222  A    between atoms: _571  and  _572
REMARK  223  A    between atoms: _577  and  _579
REMARK  224  A    between atoms: _579  and  _580
REMARK  225  A    between atoms: _579  and  _582
REMARK  226  A    between atoms: _582  and  _583
REMARK  227  A    between atoms: _586  and  _588
REMARK  228  A    between atoms: _588  and  _589
REMARK  229  A    between atoms: _588  and  _591
REMARK  230  A    between atoms: _591  and  _592
REMARK  231  A    between atoms: _597  and  _598
REMARK  232  A    between atoms: _600  and  _602
REMARK  233  A    between atoms: _602  and  _603
REMARK  234  A    between atoms: _602  and  _605
REMARK  235  A    between atoms: _605  and  _606
REMARK  236  A    between atoms: _608  and  _610
REMARK  237  A    between atoms: _610  and  _611
REMARK  238  A    between atoms: _610  and  _613
REMARK  239  A    between atoms: _613  and  _614
REMARK  240  A    between atoms: _620  and  _622
REMARK  241  A    between atoms: _622  and  _623
REMARK  242  A    between atoms: _622  and  _625
REMARK  243  A    between atoms: _625  and  _626
REMARK                            x       y       z     vdW  Elec       q    Type
REMARK                         _______ _______ _______ _____ _____    ______ ____
ROOT
ATOM      1  C   THR A   5      26.753   3.590  25.423  0.00  0.00    +0.243 C 
ATOM      2  N   SER A   6      27.672   2.804  25.978  0.00  0.00    -0.295 N 
ATOM      3  H   SER A   6      27.536   1.773  25.958  0.00  0.00    +0.150 HD
ATOM      4  O   THR A   5      26.841   4.817  25.405  0.00  0.00    -0.273 OA
ENDROOT
BRANCH   2   5
ATOM      5  CA  SER A   6      28.867   3.352  26.615  0.00  0.00    +0.178 C 
BRANCH   5   6
ATOM      6  C   SER A   6      29.838   3.905  25.564  0.00  0.00    +0.243 C 
ATOM      7  O   SER A   6      30.438   4.967  25.751  0.00  0.00    -0.273 OA
ATOM      8  N   ALA A   7      29.985   3.191  24.453  0.00  0.00    -0.297 N 
ATOM      9  H   ALA A   7      29.447   2.308  24.341  0.00  0.00    +0.150 HD
BRANCH   8  10
ATOM     10  CA  ALA A   7      30.887   3.620  23.385  0.00  0.00    +0.149 C 
ATOM     11  CB  ALA A   7      30.902   2.580  22.256  0.00  0.00    +0.031 C 
BRANCH  10  12
ATOM     12  C   ALA A   7      30.523   4.992  22.824  0.00  0.00    +0.241 C 
ATOM     13  O   ALA A   7      31.385   5.859  22.678  0.00  0.00    -0.273 OA
ATOM     14  N   ASN A   8      29.250   5.194  22.505  0.00  0.00    -0.297 N 
ATOM     15  H   ASN A   8      28.549   4.439  22.648  0.00  0.00    +0.150 HD
BRANCH  14  16
ATOM     16  CA  ASN A   8      28.840   6.481  21.953  0.00  0.00    +0.158 C 
BRANCH  16  17
ATOM     17  C   ASN A   8      29.046   7.624  22.934  0.00  0.00    +0.241 C 
ATOM     18  N   GLU A   9      28.697   7.416  24.201  0.00  0.00    -0.298 N 
ATOM     19  H   GLU A   9      28.298   6.501  24.493  0.00  0.00    +0.150 HD
ATOM     20  O   ASN A   8      29.521   8.693  22.544  0.00  0.00    -0.273 OA
BRANCH  18  21
ATOM     21  CA  GLU A   9      28.880   8.487  25.179  0.00  0.00    +0.137 C 
BRANCH  21  22
ATOM     22  C   GLU A   9      30.361   8.825  25.302  0.00  0.00    +0.227 C 
ATOM     23  O   GLU A   9      30.748   9.994  25.353  0.00  0.00    -0.286 OA
ENDBRANCH  21  22
BRANCH  21  24
ATOM     24  CB  GLU A   9      28.341   8.094  26.559  0.00  0.00    +0.039 C 
BRANCH  24  25
ATOM     25  CG  GLU A   9      28.436   9.254  27.549  0.00  0.00    +0.116 C 
BRANCH  25  26
ATOM     26  CD  GLU A   9      28.219   8.853  28.994  0.00  0.00    +0.365 C 
ATOM     27  OE2 GLU A   9      27.397   9.497  29.672  0.00  0.00    -0.246 OA
ATOM     28  OE1 GLU A   9      28.884   7.909  29.465  0.00  0.00    -0.246 OA
ENDBRANCH  25  26
ENDBRANCH  24  25
ENDBRANCH  21  24
ENDBRANCH  18  21
ENDBRANCH  16  17
BRANCH  16  29
ATOM     29  CB  ASN A   8      27.380   6.438  21.495  0.00  0.00    +0.114 C 
BRANCH  29  30
ATOM     30  CG  ASN A   8      27.216   5.749  20.151  0.00  0.00    +0.222 C 
ATOM     31  ND2 ASN A   8      26.201   4.902  20.032  0.00  0.00    -0.329 N 
ATOM     32 HD21 ASN A   8      25.571   4.728  20.841  0.00  0.00    +0.145 HD
ATOM     33 HD22 ASN A   8      26.036   4.412  19.130  0.00  0.00    +0.145 HD
ATOM     34  OD1 ASN A   8      27.988   5.989  19.228  0.00  0.00    -0.275 OA
ENDBRANCH  29  30
ENDBRANCH  16  29
ENDBRANCH  14  16
ENDBRANCH  10  12
ENDBRANCH   8  10
ENDBRANCH   5   6
BRANCH   5  35
ATOM     35  CB  SER A   6      29.549   2.257  27.450  0.00  0.00    +0.166 C 
BRANCH  35  36
ATOM     36  OG  SER A   6      30.658   2.762  28.172  0.00  0.00    -0.380 OA
ATOM     37  H   SER A   6      31.323   3.130  27.538  0.00  0.00    +0.211 HD
ENDBRANCH  35  36
ENDBRANCH   5  35
ENDBRANCH   2   5
BRANCH   1  38
ATOM     38  CA  THR A   5      25.565   2.876  24.785  0.00  0.00    +0.176 C 
BRANCH  38  40
ATOM     39  C   ALA A   4      26.986   2.023  23.012  0.00  0.00    +0.241 C 
ATOM     40  N   THR A   5      26.116   1.781  23.987  0.00  0.00    -0.295 N 
ATOM     41  H   THR A   5      25.824   0.803  24.185  0.00  0.00    +0.150 HD
ATOM     42  O   ALA A   4      27.331   3.165  22.699  0.00  0.00    -0.273 OA
BRANCH  39  43
ATOM     43  CA  ALA A   4      27.542   0.802  22.272  0.00  0.00    +0.149 C 
ATOM     44  CB  ALA A   4      26.810   0.594  20.942  0.00  0.00    +0.031 C 
BRANCH  43  47
ATOM     45  C   GLY A   3      28.135  -0.529  24.217  0.00  0.00    +0.243 C 
ATOM     46  O   GLY A   3      28.988   0.291  24.564  0.00  0.00    -0.273 OA
ATOM     47  N   ALA A   4      27.400  -0.381  23.119  0.00  0.00    -0.297 N 
ATOM     48  H   ALA A   4      26.714  -1.118  22.859  0.00  0.00    +0.150 HD
BRANCH  45  49
ATOM     49  CA  GLY A   3      27.890  -1.781  25.040  0.00  0.00    +0.176 C 
BRANCH  49  52
ATOM     50  C   ALA A   2      28.938  -1.458  27.209  0.00  0.00    +0.241 C 
ATOM     51  O   ALA A   2      28.066  -0.668  27.574  0.00  0.00    -0.273 OA
ATOM     52  N   GLY A   3      28.940  -2.040  26.013  0.00  0.00    -0.295 N 
ATOM     53  H   GLY A   3      29.710  -2.695  25.768  0.00  0.00    +0.150 HD
BRANCH  50  54
ATOM     54  CA  ALA A   2      30.101  -1.824  28.132  0.00  0.00    +0.149 C 
ATOM     55  CB  ALA A   2      29.759  -1.460  29.584  0.00  0.00    +0.031 C 
BRANCH  54  57
ATOM     56  C   THR A   1      32.007  -1.524  26.643  0.00  0.00    +0.241 C 
ATOM     57  N   ALA A   2      31.319  -1.133  27.713  0.00  0.00    -0.297 N 
ATOM     58  H   ALA A   2      31.656  -0.317  28.263  0.00  0.00    +0.150 HD
ATOM     59  O   THR A   1      31.670  -2.478  25.944  0.00  0.00    -0.274 OA
BRANCH  56  60
ATOM     60  CA  THR A   1      33.257  -0.717  26.295  0.00  0.00    +0.172 C 
BRANCH  60  61
ATOM     61  CB  THR A   1      32.798   0.593  25.633  0.00  0.00    +0.135 C 
ATOM     62  CG2 THR A   1      33.982   1.336  25.042  0.00  0.00    +0.034 C 
BRANCH  61  63
ATOM     63  OG1 THR A   1      31.882   0.288  24.574  0.00  0.00    -0.383 OA
ATOM     64  HG1 THR A   1      31.099  -0.191  24.944  0.00  0.00    +0.210 HD
ENDBRANCH  61  63
ENDBRANCH  60  61
BRANCH  60  65
ATOM     65  N   THR A   1      34.086  -1.491  25.382  0.00  0.00    -0.236 NA
ATOM     66  H   THR A   1      33.623  -2.096  24.674  0.00  0.00    +0.142 HD
ENDBRANCH  60  65
ENDBRANCH  56  60
ENDBRANCH  54  57
ENDBRANCH  50  54
ENDBRANCH  49  52
ENDBRANCH  45  49
ENDBRANCH  43  47
ENDBRANCH  39  43
ENDBRANCH  38  40
BRANCH  38  67
ATOM     67  CB  THR A   5      24.637   2.348  25.902  0.00  0.00    +0.137 C 
ATOM     68  CG2 THR A   5      24.185   3.488  26.829  0.00  0.00    +0.034 C 
BRANCH  67  69
ATOM     69  OG1 THR A   5      23.490   1.731  25.305  0.00  0.00    -0.382 OA
ATOM     70  HG1 THR A   5      23.782   0.979  24.731  0.00  0.00    +0.210 HD
ENDBRANCH  67  69
ENDBRANCH  38  67
ENDBRANCH   1  38
TORSDOF 29
REMARK  Name = ../refined-set-2016/1m7y/1m7y_pocket.pdb
REMARK  243 active torsions:
REMARK  status: ('A' for Active; 'I' for Inactive)
REMARK    1  A    between atoms: _1  and  _3
REMARK    2  A    between atoms: _3  and  _4
REMARK    3  A    between atoms: _3  and  _6
REMARK    4  A    between atoms: _6  and  _7
REMARK    5  A    between atoms: _12  and  _13
REMARK    6  A    between atoms: _15  and  _17
REMARK    7  A    between atoms: _17  and  _18
REMARK    8  A    between atoms: _17  and  _20
REMARK    9  A    between atoms: _20  and  _21
REMARK   10  A    between atoms: _27  and  _29
REMARK   11  A    between atoms: _29  and  _30
REMARK   12  A    between atoms: _29  and  _32
REMARK   13  A    between atoms: _32  and  _33
REMARK   14  A    between atoms: _43  and  _45
REMARK   15  A    between atoms: _45  and  _46
REMARK   16  A    between atoms: _45  and  _48
REMARK   17  A    between atoms: _48  and  _49
REMARK   18  A    between atoms: _49  and  _50
REMARK   19  A    between atoms: _55  and  _57
REMARK   20  A    between atoms: _57  and  _58
REMARK   21  A    between atoms: _60  and  _62
REMARK   22  A    between atoms: _62  and  _63
REMARK   23  A    between atoms: _62  and  _65
REMARK   24  A    between atoms: _65  and  _66
REMARK   25  A    between atoms: _69  and  _71
REMARK   26  A    between atoms: _71  and  _72
REMARK   27  A    between atoms: _75  and  _77
REMARK   28  A    between atoms: _77  and  _78
REMARK   29  A    between atoms: _77  and  _80
REMARK   30  A    between atoms: _80  and  _81
REMARK   31  A    between atoms: _81  and  _82
REMARK   32  A    between atoms: _85  and  _87
REMARK   33  A    between atoms: _87  and  _88
REMARK   34  A    between atoms: _87  and  _90
REMARK   35  A    between atoms: _90  and  _91
REMARK   36  A    between atoms: _96  and  _98
REMARK   37  A    between atoms: _98  and  _99
REMARK   38  A    between atoms: _98  and  _101
REMARK   39  A    between atoms: _101  and  _102
REMARK   40  A    between atoms: _105  and  _107
REMARK   41  A    between atoms: _107  and  _108
REMARK   42  A    between atoms: _111  and  _113
REMARK   43  A    between atoms: _113  and  _114
REMARK   44  A    between atoms: _116  and  _118
REMARK   45  A    between atoms: _118  and  _119
REMARK   46  A    between atoms: _122  and  _124
REMARK   47  A    between atoms: _124  and  _125
REMARK   48  A    between atoms: _124  and  _127
REMARK   49  A    between atoms: _127  and  _128
REMARK   50  A    between atoms: _131  and  _133
REMARK   51  A    between atoms: _133  and  _134
REMARK   52  A    between atoms: _133  and  _136
REMARK   53  A    between atoms: _136  and  _137
REMARK   54  A    between atoms: _139  and  _141
REMARK   55  A    between atoms: _141  and  _142
REMARK   56  A    between atoms: _145  and  _147
REMARK   57  A    between atoms: _147  and  _148
REMARK   58  A    between atoms: _147  and  _150
REMARK   59  A    between atoms: _150  and  _151
REMARK   60  A    between atoms: _156  and  _158
REMARK   61  A    between atoms: _158  and  _159
REMARK   62  A    between atoms: _158  and  _161
REMARK   63  A    between atoms: _161  and  _162
REMARK   64  A    between atoms: _162  and  _163
REMARK   65  A    between atoms: _166  and  _168
REMARK   66  A    between atoms: _168  and  _169
REMARK   67  A    between atoms: _168  and  _171
REMARK   68  A    between atoms: _171  and  _172
REMARK   69  A    between atoms: _177  and  _178
REMARK   70  A    between atoms: _180  and  _182
REMARK   71  A    between atoms: _182  and  _183
REMARK   72  A    between atoms: _182  and  _185
REMARK   73  A    between atoms: _185  and  _186
REMARK   74  A    between atoms: _191  and  _192
REMARK   75  A    between atoms: _195  and  _196
REMARK   76  A    between atoms: _201  and  _203
REMARK   77  A    between atoms: _203  and  _204
REMARK   78  A    between atoms: _206  and  _208
REMARK   79  A    between atoms: _208  and  _209
REMARK   80  A    between atoms: _208  and  _211
REMARK   81  A    between atoms: _211  and  _212
REMARK   82  A    between atoms: _218  and  _220
REMARK   83  A    between atoms: _220  and  _221
REMARK   84  A    between atoms: _220  and  _223
REMARK   85  A    between atoms: _223  and  _224
REMARK   86  A    between atoms: _224  and  _225
REMARK   87  A    between atoms: _225  and  _226
REMARK   88  A    between atoms: _235  and  _237
REMARK   89  A    between atoms: _237  and  _238
REMARK   90  A    between atoms: _237  and  _240
REMARK   91  A    between atoms: _240  and  _241
REMARK   92  A    between atoms: _244  and  _246
REMARK   93  A    between atoms: _246  and  _247
REMARK   94  A    between atoms: _246  and  _249
REMARK   95  A    between atoms: _249  and  _250
REMARK   96  A    between atoms: _253  and  _255
REMARK   97  A    between atoms: _255  and  _256
REMARK   98  A    between atoms: _255  and  _258
REMARK   99  A    between atoms: _261  and  _263
REMARK  100  A    between atoms: _263  and  _264
REMARK  101  A    between atoms: _263  and  _266
REMARK  102  A    between atoms: _266  and  _267
REMARK  103  A    between atoms: _270  and  _272
REMARK  104  A    between atoms: _272  and  _273
REMARK  105  A    between atoms: _272  and  _275
REMARK  106  A    between atoms: _275  and  _276
REMARK  107  A    between atoms: _282  and  _283
REMARK  108  A    between atoms: _288  and  _290
REMARK  109  A    between atoms: _290  and  _291
REMARK  110  A    between atoms: _290  and  _293
REMARK  111  A    between atoms: _293  and  _294
REMARK  112  A    between atoms: _296  and  _298
REMARK  113  A    between atoms: _298  and  _299
REMARK  114  A    between atoms: _298  and  _301
REMARK  115  A    between atoms: _301  and  _302
REMARK  116  A    between atoms: _308  and  _309
REMARK  117  A    between atoms: _314  and  _316
REMARK  118  A    between atoms: _316  and  _317
REMARK  119  A    between atoms: _316  and  _319
REMARK  120  A    between atoms: _319  and  _320
REMARK  121  A    between atoms: _323  and  _325
REMARK  122  A    between atoms: _325  and  _326
REMARK  123  A    between atoms: _325  and  _328
REMARK  124  A    between atoms: _328  and  _329
REMARK  125  A    between atoms: _329  and  _330
REMARK  126  A    between atoms: _333  and  _335
REMARK  127  A    between atoms: _335  and  _336
REMARK  128  A    between atoms: _335  and  _338
REMARK  129  A    between atoms: _338  and  _339
REMARK  130  A    between atoms: _342  and  _344
REMARK  131  A    between atoms: _344  and  _345
REMARK  132  A    between atoms: _344  and  _347
REMARK  133  A    between atoms: _347  and  _348
REMARK  134  A    between atoms: _353  and  _354
REMARK  135  A    between atoms: _356  and  _358
REMARK  136  A    between atoms: _358  and  _359
REMARK  137  A    between atoms: _358  and  _361
REMARK  138  A    between atoms: _364  and  _366
REMARK  139  A    between atoms: _366  and  _367
REMARK  140  A    between atoms: _366  and  _369
REMARK  141  A    between atoms: _369  and  _370
REMARK  142  A    between atoms: _375  and  _376
REMARK  143  A    between atoms: _378  and  _380
REMARK  144  A    between atoms: _380  and  _381
REMARK  145  A    between atoms: _380  and  _383
REMARK  146  A    between atoms: _383  and  _384
REMARK  147  A    between atoms: _386  and  _388
REMARK  148  A    between atoms: _388  and  _389
REMARK  149  A    between atoms: _388  and  _391
REMARK  150  A    between atoms: _391  and  _392
REMARK  151  A    between atoms: _395  and  _397
REMARK  152  A    between atoms: _397  and  _398
REMARK  153  A    between atoms: _397  and  _400
REMARK  154  A    between atoms: _400  and  _401
REMARK  155  A    between atoms: _403  and  _405
REMARK  156  A    between atoms: _405  and  _406
REMARK  157  A    between atoms: _405  and  _408
REMARK  158  A    between atoms: _408  and  _409
REMARK  159  A    between atoms: _409  and  _410
REMARK  160  A    between atoms: _410  and  _411
REMARK  161  A    between atoms: _411  and  _412
REMARK  162  A    between atoms: _416  and  _418
REMARK  163  A    between atoms: _418  and  _419
REMARK  164  A    between atoms: _418  and  _421
REMARK  165  A    between atoms: _421  and  _422
REMARK  166  A    between atoms: _426  and  _427
REMARK  167  A    between atoms: _432  and  _434
REMARK  168  A    between atoms: _434  and  _435
REMARK  169  A    between atoms: _437  and  _439
REMARK  170  A    between atoms: _439  and  _440
REMARK  171  A    between atoms: _439  and  _442
REMARK  172  A    between atoms: _442  and  _443
REMARK  173  A    between atoms: _449  and  _451
REMARK  174  A    between atoms: _451  and  _452
REMARK  175  A    between atoms: _451  and  _454
REMARK  176  A    between atoms: _454  and  _455
REMARK  177  A    between atoms: _455  and  _456
REMARK  178  A    between atoms: _456  and  _457
REMARK  179  A    between atoms: _466  and  _468
REMARK  180  A    between atoms: _468  and  _469
REMARK  181  A    between atoms: _468  and  _471
REMARK  182  A    between atoms: _474  and  _476
REMARK  183  A    between atoms: _476  and  _477
REMARK  184  A    between atoms: _479  and  _481
REMARK  185  A    between atoms: _481  and  _482
REMARK  186  A    between atoms: _485  and  _487
REMARK  187  A    between atoms: _487  and  _488
REMARK  188  A    between atoms: _487  and  _490
REMARK  189  A    between atoms: _490  and  _491
REMARK  190  A    between atoms: _494  and  _496
REMARK  191  A    between atoms: _496  and  _497
REMARK  192  A    between atoms: _496  and  _499
REMARK  193  A    between atoms: _499  and  _500
REMARK  194  A    between atoms: _506  and  _508
REMARK  195  A    between atoms: _508  and  _509
REMARK  196  A    between atoms: _508  and  _511
REMARK  197  A    between atoms: _511  and  _512
REMARK  198  A    between atoms: _514  and  _516
REMARK  199  A    between atoms: _516  and  _517
REMARK  200  A    between atoms: _516  and  _519
REMARK  201  A    between atoms: _521  and  _523
REMARK  202  A    between atoms: _523  and  _524
REMARK  203  A    between atoms: _523  and  _526
REMARK  204  A    between atoms: _526  and  _527
REMARK  205  A    between atoms: _527  and  _528
REMARK  206  A    between atoms: _528  and  _529
REMARK  207  A    between atoms: _538  and  _540
REMARK  208  A    between atoms: _540  and  _541
REMARK  209  A    between atoms: _540  and  _543
REMARK  210  A    between atoms: _545  and  _547
REMARK  211  A    between atoms: _547  and  _548
REMARK  212  A    between atoms: _547  and  _550
REMARK  213  A    between atoms: _550  and  _551
REMARK  214  A    between atoms: _556  and  _558
REMARK  215  A    between atoms: _558  and  _559
REMARK  216  A    between atoms: _558  and  _561
REMARK  217  A    between atoms: _561  and  _562
REMARK  218  A    between atoms: _565  and  _567
REMARK  219  A    between atoms: _567  and  _568
REMARK  220  A    between atoms: _567  and  _570
REMARK  221  A    between atoms: _570  and  _571
REMARK  222  A    between atoms: _571  and  _572
REMARK  223  A    between atoms: _577  and  _579
REMARK  224  A    between atoms: _579  and  _580
REMARK  225  A    between atoms: _579  and  _582
REMARK  226  A    between atoms: _582  and  _583
REMARK  227  A    between atoms: _586  and  _588
REMARK  228  A    between atoms: _588  and  _589
REMARK  229  A    between atoms: _588  and  _591
REMARK  230  A    between atoms: _591  and  _592
REMARK  231  A    between atoms: _597  and  _598
REMARK  232  A    between atoms: _600  and  _602
REMARK  233  A    between atoms: _602  and  _603
REMARK  234  A    between atoms: _602  and  _605
REMARK  235  A    between atoms: _605  and  _606
REMARK  236  A    between atoms: _608  and  _610
REMARK  237  A    between atoms: _610  and  _611
REMARK  238  A    between atoms: _610  and  _613
REMARK  239  A    between atoms: _613  and  _614
REMARK  240  A    between atoms: _620  and  _622
REMARK  241  A    between atoms: _622  and  _623
REMARK  242  A    between atoms: _622  and  _625
REMARK  243  A    between atoms: _625  and  _626
REMARK                            x       y       z     vdW  Elec       q    Type
REMARK                         _______ _______ _______ _____ _____    ______ ____
ROOT
ATOM      1  CA  TYR A   2      17.670   6.131  17.669  0.00  0.00    +0.153 C 
ENDROOT
BRANCH   1   2
ATOM      2  C   TYR A   2      17.328   7.016  18.876  0.00  0.00    +0.244 C 
ATOM      3  N   PRO A   3      16.124   6.846  19.454  0.00  0.00    -0.272 N 
ATOM      4  CA  PRO A   3      15.685   7.639  20.609  0.00  0.00    +0.152 C 
ATOM      5  CB  PRO A   3      14.377   6.962  21.014  0.00  0.00    +0.031 C 
ATOM      6  CG  PRO A   3      13.832   6.497  19.706  0.00  0.00    +0.024 C 
ATOM      7  CD  PRO A   3      15.062   5.915  19.032  0.00  0.00    +0.094 C 
ATOM      8  O   TYR A   2      18.132   7.846  19.288  0.00  0.00    -0.273 OA
BRANCH   4   9
ATOM      9  C   PRO A   3      16.685   7.693  21.763  0.00  0.00    +0.241 C 
ATOM     10  O   PRO A   3      16.783   8.703  22.460  0.00  0.00    -0.273 OA
ATOM     11  N   GLY A   4      17.427   6.610  21.956  0.00  0.00    -0.295 N 
ATOM     12  H   GLY A   4      17.312   5.787  21.330  0.00  0.00    +0.150 HD
BRANCH  11  13
ATOM     13  CA  GLY A   4      18.398   6.565  23.034  0.00  0.00    +0.176 C 
BRANCH  13  14
ATOM     14  C   GLY A   4      19.488   7.620  22.967  0.00  0.00    +0.243 C 
ATOM     15  O   GLY A   4      20.062   7.973  23.996  0.00  0.00    -0.273 OA
ATOM     16  N   PHE A   5      19.785   8.125  21.772  0.00  0.00    -0.298 N 
ATOM     17  H   PHE A   5      19.266   7.793  20.934  0.00  0.00    +0.150 HD
BRANCH  16  18
ATOM     18  CA  PHE A   5      20.827   9.137  21.615  0.00  0.00    +0.141 C 
BRANCH  18  19
ATOM     19  C   PHE A   5      20.557  10.403  22.422  0.00  0.00    +0.227 C 
ATOM     20  O   PHE A   5      21.491  11.081  22.840  0.00  0.00    -0.286 OA
ENDBRANCH  18  19
BRANCH  18  21
ATOM     21  CB  PHE A   5      21.003   9.536  20.140  0.00  0.00    +0.054 C 
BRANCH  21  22
ATOM     22  CG  PHE A   5      21.709   8.506  19.296  0.00  0.00    -0.020 A 
ATOM     23  CD2 PHE A   5      22.623   7.618  19.856  0.00  0.00    -0.004 A 
ATOM     24  CE2 PHE A   5      23.308   6.698  19.054  0.00  0.00    -0.000 A 
ATOM     25  CZ  PHE A   5      23.076   6.669  17.680  0.00  0.00    -0.000 A 
ATOM     26  CE1 PHE A   5      22.167   7.551  17.117  0.00  0.00    -0.000 A 
ATOM     27  CD1 PHE A   5      21.491   8.459  17.923  0.00  0.00    -0.004 A 
ENDBRANCH  21  22
ENDBRANCH  18  21
ENDBRANCH  16  18
ENDBRANCH  13  14
ENDBRANCH  11  13
ENDBRANCH   4   9
ENDBRANCH   1   2
BRANCH   1  29
ATOM     28  C   TYR A   1      16.999   7.768  15.975  0.00  0.00    +0.239 C 
ATOM     29  N   TYR A   2      17.908   6.942  16.479  0.00  0.00    -0.297 N 
ATOM     30  H   TYR A   2      18.831   6.870  16.005  0.00  0.00    +0.150 HD
ATOM     31  O   TYR A   1      15.873   7.902  16.451  0.00  0.00    -0.274 OA
BRANCH  28  32
ATOM     32  CA  TYR A   1      17.428   8.534  14.727  0.00  0.00    +0.149 C 
BRANCH  32  33
ATOM     33  N   TYR A   1      16.333   9.273  14.107  0.00  0.00    -0.238 NA
ATOM     34  H   TYR A   1      15.645   9.771  14.708  0.00  0.00    +0.142 HD
ENDBRANCH  32  33
BRANCH  32  35
ATOM     35  CB  TYR A   1      18.610   9.472  15.046  0.00  0.00    +0.053 C 
BRANCH  35  36
ATOM     36  CG  TYR A   1      18.326  10.615  16.005  0.00  0.00    -0.020 A 
ATOM     37  CD2 TYR A   1      18.221  10.396  17.379  0.00  0.00    -0.001 A 
ATOM     38  CE2 TYR A   1      18.020  11.456  18.269  0.00  0.00    +0.036 A 
ATOM     39  CZ  TYR A   1      17.919  12.749  17.779  0.00  0.00    +0.134 A 
ATOM     40  CE1 TYR A   1      18.014  12.992  16.418  0.00  0.00    +0.036 A 
ATOM     41  CD1 TYR A   1      18.215  11.927  15.539  0.00  0.00    -0.001 A 
BRANCH  39  42
ATOM     42  OH  TYR A   1      17.728  13.799  18.648  0.00  0.00    -0.506 OA
ATOM     43  HH  TYR A   1      17.683  13.455  19.575  0.00  0.00    +0.292 HD
ENDBRANCH  39  42
ENDBRANCH  35  36
ENDBRANCH  32  35
ENDBRANCH  28  32
ENDBRANCH   1  29
BRANCH   1  44
ATOM     44  CB  TYR A   2      18.930   5.295  17.930  0.00  0.00    +0.055 C 
BRANCH  44  45
ATOM     45  CG  TYR A   2      19.003   4.639  19.288  0.00  0.00    -0.020 A 
ATOM     46  CD2 TYR A   2      20.155   4.754  20.070  0.00  0.00    -0.001 A 
ATOM     47  CE2 TYR A   2      20.253   4.123  21.302  0.00  0.00    +0.036 A 
ATOM     48  CZ  TYR A   2      19.190   3.367  21.769  0.00  0.00    +0.134 A 
ATOM     49  CE1 TYR A   2      18.031   3.239  21.015  0.00  0.00    +0.036 A 
ATOM     50  CD1 TYR A   2      17.946   3.877  19.777  0.00  0.00    -0.001 A 
BRANCH  48  51
ATOM     51  OH  TYR A   2      19.298   2.729  22.982  0.00  0.00    -0.506 OA
ATOM     52  HH  TYR A   2      18.461   2.236  23.170  0.00  0.00    +0.292 HD
ENDBRANCH  48  51
ENDBRANCH  44  45
ENDBRANCH   1  44
TORSDOF 17
REMARK  Name = ../refined-set-2016/1m7y/1m7y_pocket.pdb
REMARK  243 active torsions:
REMARK  status: ('A' for Active; 'I' for Inactive)
REMARK    1  A    between atoms: _1  and  _3
REMARK    2  A    between atoms: _3  and  _4
REMARK    3  A    between atoms: _3  and  _6
REMARK    4  A    between atoms: _6  and  _7
REMARK    5  A    between atoms: _12  and  _13
REMARK    6  A    between atoms: _15  and  _17
REMARK    7  A    between atoms: _17  and  _18
REMARK    8  A    between atoms: _17  and  _20
REMARK    9  A    between atoms: _20  and  _21
REMARK   10  A    between atoms: _27  and  _29
REMARK   11  A    between atoms: _29  and  _30
REMARK   12  A    between atoms: _29  and  _32
REMARK   13  A    between atoms: _32  and  _33
REMARK   14  A    between atoms: _43  and  _45
REMARK   15  A    between atoms: _45  and  _46
REMARK   16  A    between atoms: _45  and  _48
REMARK   17  A    between atoms: _48  and  _49
REMARK   18  A    between atoms: _49  and  _50
REMARK   19  A    between atoms: _55  and  _57
REMARK   20  A    between atoms: _57  and  _58
REMARK   21  A    between atoms: _60  and  _62
REMARK   22  A    between atoms: _62  and  _63
REMARK   23  A    between atoms: _62  and  _65
REMARK   24  A    between atoms: _65  and  _66
REMARK   25  A    between atoms: _69  and  _71
REMARK   26  A    between atoms: _71  and  _72
REMARK   27  A    between atoms: _75  and  _77
REMARK   28  A    between atoms: _77  and  _78
REMARK   29  A    between atoms: _77  and  _80
REMARK   30  A    between atoms: _80  and  _81
REMARK   31  A    between atoms: _81  and  _82
REMARK   32  A    between atoms: _85  and  _87
REMARK   33  A    between atoms: _87  and  _88
REMARK   34  A    between atoms: _87  and  _90
REMARK   35  A    between atoms: _90  and  _91
REMARK   36  A    between atoms: _96  and  _98
REMARK   37  A    between atoms: _98  and  _99
REMARK   38  A    between atoms: _98  and  _101
REMARK   39  A    between atoms: _101  and  _102
REMARK   40  A    between atoms: _105  and  _107
REMARK   41  A    between atoms: _107  and  _108
REMARK   42  A    between atoms: _111  and  _113
REMARK   43  A    between atoms: _113  and  _114
REMARK   44  A    between atoms: _116  and  _118
REMARK   45  A    between atoms: _118  and  _119
REMARK   46  A    between atoms: _122  and  _124
REMARK   47  A    between atoms: _124  and  _125
REMARK   48  A    between atoms: _124  and  _127
REMARK   49  A    between atoms: _127  and  _128
REMARK   50  A    between atoms: _131  and  _133
REMARK   51  A    between atoms: _133  and  _134
REMARK   52  A    between atoms: _133  and  _136
REMARK   53  A    between atoms: _136  and  _137
REMARK   54  A    between atoms: _139  and  _141
REMARK   55  A    between atoms: _141  and  _142
REMARK   56  A    between atoms: _145  and  _147
REMARK   57  A    between atoms: _147  and  _148
REMARK   58  A    between atoms: _147  and  _150
REMARK   59  A    between atoms: _150  and  _151
REMARK   60  A    between atoms: _156  and  _158
REMARK   61  A    between atoms: _158  and  _159
REMARK   62  A    between atoms: _158  and  _161
REMARK   63  A    between atoms: _161  and  _162
REMARK   64  A    between atoms: _162  and  _163
REMARK   65  A    between atoms: _166  and  _168
REMARK   66  A    between atoms: _168  and  _169
REMARK   67  A    between atoms: _168  and  _171
REMARK   68  A    between atoms: _171  and  _172
REMARK   69  A    between atoms: _177  and  _178
REMARK   70  A    between atoms: _180  and  _182
REMARK   71  A    between atoms: _182  and  _183
REMARK   72  A    between atoms: _182  and  _185
REMARK   73  A    between atoms: _185  and  _186
REMARK   74  A    between atoms: _191  and  _192
REMARK   75  A    between atoms: _195  and  _196
REMARK   76  A    between atoms: _201  and  _203
REMARK   77  A    between atoms: _203  and  _204
REMARK   78  A    between atoms: _206  and  _208
REMARK   79  A    between atoms: _208  and  _209
REMARK   80  A    between atoms: _208  and  _211
REMARK   81  A    between atoms: _211  and  _212
REMARK   82  A    between atoms: _218  and  _220
REMARK   83  A    between atoms: _220  and  _221
REMARK   84  A    between atoms: _220  and  _223
REMARK   85  A    between atoms: _223  and  _224
REMARK   86  A    between atoms: _224  and  _225
REMARK   87  A    between atoms: _225  and  _226
REMARK   88  A    between atoms: _235  and  _237
REMARK   89  A    between atoms: _237  and  _238
REMARK   90  A    between atoms: _237  and  _240
REMARK   91  A    between atoms: _240  and  _241
REMARK   92  A    between atoms: _244  and  _246
REMARK   93  A    between atoms: _246  and  _247
REMARK   94  A    between atoms: _246  and  _249
REMARK   95  A    between atoms: _249  and  _250
REMARK   96  A    between atoms: _253  and  _255
REMARK   97  A    between atoms: _255  and  _256
REMARK   98  A    between atoms: _255  and  _258
REMARK   99  A    between atoms: _261  and  _263
REMARK  100  A    between atoms: _263  and  _264
REMARK  101  A    between atoms: _263  and  _266
REMARK  102  A    between atoms: _266  and  _267
REMARK  103  A    between atoms: _270  and  _272
REMARK  104  A    between atoms: _272  and  _273
REMARK  105  A    between atoms: _272  and  _275
REMARK  106  A    between atoms: _275  and  _276
REMARK  107  A    between atoms: _282  and  _283
REMARK  108  A    between atoms: _288  and  _290
REMARK  109  A    between atoms: _290  and  _291
REMARK  110  A    between atoms: _290  and  _293
REMARK  111  A    between atoms: _293  and  _294
REMARK  112  A    between atoms: _296  and  _298
REMARK  113  A    between atoms: _298  and  _299
REMARK  114  A    between atoms: _298  and  _301
REMARK  115  A    between atoms: _301  and  _302
REMARK  116  A    between atoms: _308  and  _309
REMARK  117  A    between atoms: _314  and  _316
REMARK  118  A    between atoms: _316  and  _317
REMARK  119  A    between atoms: _316  and  _319
REMARK  120  A    between atoms: _319  and  _320
REMARK  121  A    between atoms: _323  and  _325
REMARK  122  A    between atoms: _325  and  _326
REMARK  123  A    between atoms: _325  and  _328
REMARK  124  A    between atoms: _328  and  _329
REMARK  125  A    between atoms: _329  and  _330
REMARK  126  A    between atoms: _333  and  _335
REMARK  127  A    between atoms: _335  and  _336
REMARK  128  A    between atoms: _335  and  _338
REMARK  129  A    between atoms: _338  and  _339
REMARK  130  A    between atoms: _342  and  _344
REMARK  131  A    between atoms: _344  and  _345
REMARK  132  A    between atoms: _344  and  _347
REMARK  133  A    between atoms: _347  and  _348
REMARK  134  A    between atoms: _353  and  _354
REMARK  135  A    between atoms: _356  and  _358
REMARK  136  A    between atoms: _358  and  _359
REMARK  137  A    between atoms: _358  and  _361
REMARK  138  A    between atoms: _364  and  _366
REMARK  139  A    between atoms: _366  and  _367
REMARK  140  A    between atoms: _366  and  _369
REMARK  141  A    between atoms: _369  and  _370
REMARK  142  A    between atoms: _375  and  _376
REMARK  143  A    between atoms: _378  and  _380
REMARK  144  A    between atoms: _380  and  _381
REMARK  145  A    between atoms: _380  and  _383
REMARK  146  A    between atoms: _383  and  _384
REMARK  147  A    between atoms: _386  and  _388
REMARK  148  A    between atoms: _388  and  _389
REMARK  149  A    between atoms: _388  and  _391
REMARK  150  A    between atoms: _391  and  _392
REMARK  151  A    between atoms: _395  and  _397
REMARK  152  A    between atoms: _397  and  _398
REMARK  153  A    between atoms: _397  and  _400
REMARK  154  A    between atoms: _400  and  _401
REMARK  155  A    between atoms: _403  and  _405
REMARK  156  A    between atoms: _405  and  _406
REMARK  157  A    between atoms: _405  and  _408
REMARK  158  A    between atoms: _408  and  _409
REMARK  159  A    between atoms: _409  and  _410
REMARK  160  A    between atoms: _410  and  _411
REMARK  161  A    between atoms: _411  and  _412
REMARK  162  A    between atoms: _416  and  _418
REMARK  163  A    between atoms: _418  and  _419
REMARK  164  A    between atoms: _418  and  _421
REMARK  165  A    between atoms: _421  and  _422
REMARK  166  A    between atoms: _426  and  _427
REMARK  167  A    between atoms: _432  and  _434
REMARK  168  A    between atoms: _434  and  _435
REMARK  169  A    between atoms: _437  and  _439
REMARK  170  A    between atoms: _439  and  _440
REMARK  171  A    between atoms: _439  and  _442
REMARK  172  A    between atoms: _442  and  _443
REMARK  173  A    between atoms: _449  and  _451
REMARK  174  A    between atoms: _451  and  _452
REMARK  175  A    between atoms: _451  and  _454
REMARK  176  A    between atoms: _454  and  _455
REMARK  177  A    between atoms: _455  and  _456
REMARK  178  A    between atoms: _456  and  _457
REMARK  179  A    between atoms: _466  and  _468
REMARK  180  A    between atoms: _468  and  _469
REMARK  181  A    between atoms: _468  and  _471
REMARK  182  A    between atoms: _474  and  _476
REMARK  183  A    between atoms: _476  and  _477
REMARK  184  A    between atoms: _479  and  _481
REMARK  185  A    between atoms: _481  and  _482
REMARK  186  A    between atoms: _485  and  _487
REMARK  187  A    between atoms: _487  and  _488
REMARK  188  A    between atoms: _487  and  _490
REMARK  189  A    between atoms: _490  and  _491
REMARK  190  A    between atoms: _494  and  _496
REMARK  191  A    between atoms: _496  and  _497
REMARK  192  A    between atoms: _496  and  _499
REMARK  193  A    between atoms: _499  and  _500
REMARK  194  A    between atoms: _506  and  _508
REMARK  195  A    between atoms: _508  and  _509
REMARK  196  A    between atoms: _508  and  _511
REMARK  197  A    between atoms: _511  and  _512
REMARK  198  A    between atoms: _514  and  _516
REMARK  199  A    between atoms: _516  and  _517
REMARK  200  A    between atoms: _516  and  _519
REMARK  201  A    between atoms: _521  and  _523
REMARK  202  A    between atoms: _523  and  _524
REMARK  203  A    between atoms: _523  and  _526
REMARK  204  A    between atoms: _526  and  _527
REMARK  205  A    between atoms: _527  and  _528
REMARK  206  A    between atoms: _528  and  _529
REMARK  207  A    between atoms: _538  and  _540
REMARK  208  A    between atoms: _540  and  _541
REMARK  209  A    between atoms: _540  and  _543
REMARK  210  A    between atoms: _545  and  _547
REMARK  211  A    between atoms: _547  and  _548
REMARK  212  A    between atoms: _547  and  _550
REMARK  213  A    between atoms: _550  and  _551
REMARK  214  A    between atoms: _556  and  _558
REMARK  215  A    between atoms: _558  and  _559
REMARK  216  A    between atoms: _558  and  _561
REMARK  217  A    between atoms: _561  and  _562
REMARK  218  A    between atoms: _565  and  _567
REMARK  219  A    between atoms: _567  and  _568
REMARK  220  A    between atoms: _567  and  _570
REMARK  221  A    between atoms: _570  and  _571
REMARK  222  A    between atoms: _571  and  _572
REMARK  223  A    between atoms: _577  and  _579
REMARK  224  A    between atoms: _579  and  _580
REMARK  225  A    between atoms: _579  and  _582
REMARK  226  A    between atoms: _582  and  _583
REMARK  227  A    between atoms: _586  and  _588
REMARK  228  A    between atoms: _588  and  _589
REMARK  229  A    between atoms: _588  and  _591
REMARK  230  A    between atoms: _591  and  _592
REMARK  231  A    between atoms: _597  and  _598
REMARK  232  A    between atoms: _600  and  _602
REMARK  233  A    between atoms: _602  and  _603
REMARK  234  A    between atoms: _602  and  _605
REMARK  235  A    between atoms: _605  and  _606
REMARK  236  A    between atoms: _608  and  _610
REMARK  237  A    between atoms: _610  and  _611
REMARK  238  A    between atoms: _610  and  _613
REMARK  239  A    between atoms: _613  and  _614
REMARK  240  A    between atoms: _620  and  _622
REMARK  241  A    between atoms: _622  and  _623
REMARK  242  A    between atoms: _622  and  _625
REMARK  243  A    between atoms: _625  and  _626
REMARK                            x       y       z     vdW  Elec       q    Type
REMARK                         _______ _______ _______ _____ _____    ______ ____
ROOT
ATOM      1  CA  ARG A   1      20.294  10.510  26.651  0.00  0.00    +0.145 C 
ENDROOT
BRANCH   1   2
ATOM      2  C   ARG A   1      21.781  10.212  26.537  0.00  0.00    +0.238 C 
ATOM      3  O   ARG A   1      22.605  10.887  27.139  0.00  0.00    -0.274 OA
ATOM      4  N   ASP A   2      22.115   9.195  25.748  0.00  0.00    -0.298 N 
ATOM      5  H   ASP A   2      21.367   8.686  25.235  0.00  0.00    +0.150 HD
BRANCH   4   6
ATOM      6  CA  ASP A   2      23.502   8.772  25.581  0.00  0.00    +0.148 C 
BRANCH   6   7
ATOM      7  C   ASP A   2      24.492   9.852  25.200  0.00  0.00    +0.227 C 
ATOM      8  O   ASP A   2      25.584   9.927  25.762  0.00  0.00    -0.286 OA
ENDBRANCH   6   7
BRANCH   6   9
ATOM      9  CB  ASP A   2      23.607   7.668  24.522  0.00  0.00    +0.142 C 
BRANCH   9  10
ATOM     10  CG  ASP A   2      22.768   6.452  24.848  0.00  0.00    +0.367 C 
ATOM     11  OD2 ASP A   2      22.216   6.368  25.960  0.00  0.00    -0.246 OA
ATOM     12  OD1 ASP A   2      22.667   5.563  23.974  0.00  0.00    -0.246 OA
ENDBRANCH   9  10
ENDBRANCH   6   9
ENDBRANCH   4   6
ENDBRANCH   1   2
BRANCH   1  13
ATOM     13  N   ARG A   1      19.737  10.677  25.314  0.00  0.00    -0.238 NA
ATOM     14  H   ARG A   1      19.522   9.835  24.742  0.00  0.00    +0.142 HD
ENDBRANCH   1  13
BRANCH   1  15
ATOM     15  CB  ARG A   1      19.624   9.346  27.386  0.00  0.00    +0.030 C 
BRANCH  15  16
ATOM     16  CG  ARG A   1      20.358   8.928  28.663  0.00  0.00    +0.045 C 
BRANCH  16  17
ATOM     17  CD  ARG A   1      20.004   7.507  29.063  0.00  0.00    +0.174 C 
BRANCH  17  18
ATOM     18  NE  ARG A   1      20.367   6.556  28.012  0.00  0.00    -0.265 N 
ATOM     19  CZ  ARG A   1      19.957   5.293  27.970  0.00  0.00    +0.342 C 
ATOM     20  NH2 ARG A   1      19.166   4.818  28.924  0.00  0.00    -0.292 N 
ATOM     21 HH21 ARG A   1      18.866   5.435  29.706  0.00  0.00    +0.255 HD
ATOM     22 HH22 ARG A   1      18.846   3.829  28.890  0.00  0.00    +0.255 HD
ATOM     23  NH1 ARG A   1      20.324   4.508  26.965  0.00  0.00    -0.292 N 
ATOM     24 HH11 ARG A   1      20.002   3.519  26.933  0.00  0.00    +0.255 HD
ATOM     25 HH12 ARG A   1      20.933   4.881  26.209  0.00  0.00    +0.255 HD
ATOM     26  HE  ARG A   1      20.987   6.891  27.247  0.00  0.00    +0.259 HD
ENDBRANCH  17  18
ENDBRANCH  16  17
ENDBRANCH  15  16
ENDBRANCH   1  15
TORSDOF 10
REMARK  Name = ../refined-set-2016/1m7y/1m7y_pocket.pdb
REMARK  243 active torsions:
REMARK  status: ('A' for Active; 'I' for Inactive)
REMARK    1  A    between atoms: _1  and  _3
REMARK    2  A    between atoms: _3  and  _4
REMARK    3  A    between atoms: _3  and  _6
REMARK    4  A    between atoms: _6  and  _7
REMARK    5  A    between atoms: _12  and  _13
REMARK    6  A    between atoms: _15  and  _17
REMARK    7  A    between atoms: _17  and  _18
REMARK    8  A    between atoms: _17  and  _20
REMARK    9  A    between atoms: _20  and  _21
REMARK   10  A    between atoms: _27  and  _29
REMARK   11  A    between atoms: _29  and  _30
REMARK   12  A    between atoms: _29  and  _32
REMARK   13  A    between atoms: _32  and  _33
REMARK   14  A    between atoms: _43  and  _45
REMARK   15  A    between atoms: _45  and  _46
REMARK   16  A    between atoms: _45  and  _48
REMARK   17  A    between atoms: _48  and  _49
REMARK   18  A    between atoms: _49  and  _50
REMARK   19  A    between atoms: _55  and  _57
REMARK   20  A    between atoms: _57  and  _58
REMARK   21  A    between atoms: _60  and  _62
REMARK   22  A    between atoms: _62  and  _63
REMARK   23  A    between atoms: _62  and  _65
REMARK   24  A    between atoms: _65  and  _66
REMARK   25  A    between atoms: _69  and  _71
REMARK   26  A    between atoms: _71  and  _72
REMARK   27  A    between atoms: _75  and  _77
REMARK   28  A    between atoms: _77  and  _78
REMARK   29  A    between atoms: _77  and  _80
REMARK   30  A    between atoms: _80  and  _81
REMARK   31  A    between atoms: _81  and  _82
REMARK   32  A    between atoms: _85  and  _87
REMARK   33  A    between atoms: _87  and  _88
REMARK   34  A    between atoms: _87  and  _90
REMARK   35  A    between atoms: _90  and  _91
REMARK   36  A    between atoms: _96  and  _98
REMARK   37  A    between atoms: _98  and  _99
REMARK   38  A    between atoms: _98  and  _101
REMARK   39  A    between atoms: _101  and  _102
REMARK   40  A    between atoms: _105  and  _107
REMARK   41  A    between atoms: _107  and  _108
REMARK   42  A    between atoms: _111  and  _113
REMARK   43  A    between atoms: _113  and  _114
REMARK   44  A    between atoms: _116  and  _118
REMARK   45  A    between atoms: _118  and  _119
REMARK   46  A    between atoms: _122  and  _124
REMARK   47  A    between atoms: _124  and  _125
REMARK   48  A    between atoms: _124  and  _127
REMARK   49  A    between atoms: _127  and  _128
REMARK   50  A    between atoms: _131  and  _133
REMARK   51  A    between atoms: _133  and  _134
REMARK   52  A    between atoms: _133  and  _136
REMARK   53  A    between atoms: _136  and  _137
REMARK   54  A    between atoms: _139  and  _141
REMARK   55  A    between atoms: _141  and  _142
REMARK   56  A    between atoms: _145  and  _147
REMARK   57  A    between atoms: _147  and  _148
REMARK   58  A    between atoms: _147  and  _150
REMARK   59  A    between atoms: _150  and  _151
REMARK   60  A    between atoms: _156  and  _158
REMARK   61  A    between atoms: _158  and  _159
REMARK   62  A    between atoms: _158  and  _161
REMARK   63  A    between atoms: _161  and  _162
REMARK   64  A    between atoms: _162  and  _163
REMARK   65  A    between atoms: _166  and  _168
REMARK   66  A    between atoms: _168  and  _169
REMARK   67  A    between atoms: _168  and  _171
REMARK   68  A    between atoms: _171  and  _172
REMARK   69  A    between atoms: _177  and  _178
REMARK   70  A    between atoms: _180  and  _182
REMARK   71  A    between atoms: _182  and  _183
REMARK   72  A    between atoms: _182  and  _185
REMARK   73  A    between atoms: _185  and  _186
REMARK   74  A    between atoms: _191  and  _192
REMARK   75  A    between atoms: _195  and  _196
REMARK   76  A    between atoms: _201  and  _203
REMARK   77  A    between atoms: _203  and  _204
REMARK   78  A    between atoms: _206  and  _208
REMARK   79  A    between atoms: _208  and  _209
REMARK   80  A    between atoms: _208  and  _211
REMARK   81  A    between atoms: _211  and  _212
REMARK   82  A    between atoms: _218  and  _220
REMARK   83  A    between atoms: _220  and  _221
REMARK   84  A    between atoms: _220  and  _223
REMARK   85  A    between atoms: _223  and  _224
REMARK   86  A    between atoms: _224  and  _225
REMARK   87  A    between atoms: _225  and  _226
REMARK   88  A    between atoms: _235  and  _237
REMARK   89  A    between atoms: _237  and  _238
REMARK   90  A    between atoms: _237  and  _240
REMARK   91  A    between atoms: _240  and  _241
REMARK   92  A    between atoms: _244  and  _246
REMARK   93  A    between atoms: _246  and  _247
REMARK   94  A    between atoms: _246  and  _249
REMARK   95  A    between atoms: _249  and  _250
REMARK   96  A    between atoms: _253  and  _255
REMARK   97  A    between atoms: _255  and  _256
REMARK   98  A    between atoms: _255  and  _258
REMARK   99  A    between atoms: _261  and  _263
REMARK  100  A    between atoms: _263  and  _264
REMARK  101  A    between atoms: _263  and  _266
REMARK  102  A    between atoms: _266  and  _267
REMARK  103  A    between atoms: _270  and  _272
REMARK  104  A    between atoms: _272  and  _273
REMARK  105  A    between atoms: _272  and  _275
REMARK  106  A    between atoms: _275  and  _276
REMARK  107  A    between atoms: _282  and  _283
REMARK  108  A    between atoms: _288  and  _290
REMARK  109  A    between atoms: _290  and  _291
REMARK  110  A    between atoms: _290  and  _293
REMARK  111  A    between atoms: _293  and  _294
REMARK  112  A    between atoms: _296  and  _298
REMARK  113  A    between atoms: _298  and  _299
REMARK  114  A    between atoms: _298  and  _301
REMARK  115  A    between atoms: _301  and  _302
REMARK  116  A    between atoms: _308  and  _309
REMARK  117  A    between atoms: _314  and  _316
REMARK  118  A    between atoms: _316  and  _317
REMARK  119  A    between atoms: _316  and  _319
REMARK  120  A    between atoms: _319  and  _320
REMARK  121  A    between atoms: _323  and  _325
REMARK  122  A    between atoms: _325  and  _326
REMARK  123  A    between atoms: _325  and  _328
REMARK  124  A    between atoms: _328  and  _329
REMARK  125  A    between atoms: _329  and  _330
REMARK  126  A    between atoms: _333  and  _335
REMARK  127  A    between atoms: _335  and  _336
REMARK  128  A    between atoms: _335  and  _338
REMARK  129  A    between atoms: _338  and  _339
REMARK  130  A    between atoms: _342  and  _344
REMARK  131  A    between atoms: _344  and  _345
REMARK  132  A    between atoms: _344  and  _347
REMARK  133  A    between atoms: _347  and  _348
REMARK  134  A    between atoms: _353  and  _354
REMARK  135  A    between atoms: _356  and  _358
REMARK  136  A    between atoms: _358  and  _359
REMARK  137  A    between atoms: _358  and  _361
REMARK  138  A    between atoms: _364  and  _366
REMARK  139  A    between atoms: _366  and  _367
REMARK  140  A    between atoms: _366  and  _369
REMARK  141  A    between atoms: _369  and  _370
REMARK  142  A    between atoms: _375  and  _376
REMARK  143  A    between atoms: _378  and  _380
REMARK  144  A    between atoms: _380  and  _381
REMARK  145  A    between atoms: _380  and  _383
REMARK  146  A    between atoms: _383  and  _384
REMARK  147  A    between atoms: _386  and  _388
REMARK  148  A    between atoms: _388  and  _389
REMARK  149  A    between atoms: _388  and  _391
REMARK  150  A    between atoms: _391  and  _392
REMARK  151  A    between atoms: _395  and  _397
REMARK  152  A    between atoms: _397  and  _398
REMARK  153  A    between atoms: _397  and  _400
REMARK  154  A    between atoms: _400  and  _401
REMARK  155  A    between atoms: _403  and  _405
REMARK  156  A    between atoms: _405  and  _406
REMARK  157  A    between atoms: _405  and  _408
REMARK  158  A    between atoms: _408  and  _409
REMARK  159  A    between atoms: _409  and  _410
REMARK  160  A    between atoms: _410  and  _411
REMARK  161  A    between atoms: _411  and  _412
REMARK  162  A    between atoms: _416  and  _418
REMARK  163  A    between atoms: _418  and  _419
REMARK  164  A    between atoms: _418  and  _421
REMARK  165  A    between atoms: _421  and  _422
REMARK  166  A    between atoms: _426  and  _427
REMARK  167  A    between atoms: _432  and  _434
REMARK  168  A    between atoms: _434  and  _435
REMARK  169  A    between atoms: _437  and  _439
REMARK  170  A    between atoms: _439  and  _440
REMARK  171  A    between atoms: _439  and  _442
REMARK  172  A    between atoms: _442  and  _443
REMARK  173  A    between atoms: _449  and  _451
REMARK  174  A    between atoms: _451  and  _452
REMARK  175  A    between atoms: _451  and  _454
REMARK  176  A    between atoms: _454  and  _455
REMARK  177  A    between atoms: _455  and  _456
REMARK  178  A    between atoms: _456  and  _457
REMARK  179  A    between atoms: _466  and  _468
REMARK  180  A    between atoms: _468  and  _469
REMARK  181  A    between atoms: _468  and  _471
REMARK  182  A    between atoms: _474  and  _476
REMARK  183  A    between atoms: _476  and  _477
REMARK  184  A    between atoms: _479  and  _481
REMARK  185  A    between atoms: _481  and  _482
REMARK  186  A    between atoms: _485  and  _487
REMARK  187  A    between atoms: _487  and  _488
REMARK  188  A    between atoms: _487  and  _490
REMARK  189  A    between atoms: _490  and  _491
REMARK  190  A    between atoms: _494  and  _496
REMARK  191  A    between atoms: _496  and  _497
REMARK  192  A    between atoms: _496  and  _499
REMARK  193  A    between atoms: _499  and  _500
REMARK  194  A    between atoms: _506  and  _508
REMARK  195  A    between atoms: _508  and  _509
REMARK  196  A    between atoms: _508  and  _511
REMARK  197  A    between atoms: _511  and  _512
REMARK  198  A    between atoms: _514  and  _516
REMARK  199  A    between atoms: _516  and  _517
REMARK  200  A    between atoms: _516  and  _519
REMARK  201  A    between atoms: _521  and  _523
REMARK  202  A    between atoms: _523  and  _524
REMARK  203  A    between atoms: _523  and  _526
REMARK  204  A    between atoms: _526  and  _527
REMARK  205  A    between atoms: _527  and  _528
REMARK  206  A    between atoms: _528  and  _529
REMARK  207  A    between atoms: _538  and  _540
REMARK  208  A    between atoms: _540  and  _541
REMARK  209  A    between atoms: _540  and  _543
REMARK  210  A    between atoms: _545  and  _547
REMARK  211  A    between atoms: _547  and  _548
REMARK  212  A    between atoms: _547  and  _550
REMARK  213  A    between atoms: _550  and  _551
REMARK  214  A    between atoms: _556  and  _558
REMARK  215  A    between atoms: _558  and  _559
REMARK  216  A    between atoms: _558  and  _561
REMARK  217  A    between atoms: _561  and  _562
REMARK  218  A    between atoms: _565  and  _567
REMARK  219  A    between atoms: _567  and  _568
REMARK  220  A    between atoms: _567  and  _570
REMARK  221  A    between atoms: _570  and  _571
REMARK  222  A    between atoms: _571  and  _572
REMARK  223  A    between atoms: _577  and  _579
REMARK  224  A    between atoms: _579  and  _580
REMARK  225  A    between atoms: _579  and  _582
REMARK  226  A    between atoms: _582  and  _583
REMARK  227  A    between atoms: _586  and  _588
REMARK  228  A    between atoms: _588  and  _589
REMARK  229  A    between atoms: _588  and  _591
REMARK  230  A    between atoms: _591  and  _592
REMARK  231  A    between atoms: _597  and  _598
REMARK  232  A    between atoms: _600  and  _602
REMARK  233  A    between atoms: _602  and  _603
REMARK  234  A    between atoms: _602  and  _605
REMARK  235  A    between atoms: _605  and  _606
REMARK  236  A    between atoms: _608  and  _610
REMARK  237  A    between atoms: _610  and  _611
REMARK  238  A    between atoms: _610  and  _613
REMARK  239  A    between atoms: _613  and  _614
REMARK  240  A    between atoms: _620  and  _622
REMARK  241  A    between atoms: _622  and  _623
REMARK  242  A    between atoms: _622  and  _625
REMARK  243  A    between atoms: _625  and  _626
REMARK                            x       y       z     vdW  Elec       q    Type
REMARK                         _______ _______ _______ _____ _____    ______ ____
ROOT
ATOM      1  CA  ASN A   4      24.806   2.761   9.284  0.00  0.00    +0.158 C 
ENDROOT
BRANCH   1   2
ATOM      2  C   ASN A   4      25.107   1.278   9.499  0.00  0.00    +0.244 C 
ATOM      3  O   ASN A   4      26.214   0.924   9.895  0.00  0.00    -0.273 OA
ATOM      4  N   PRO A   5      24.132   0.388   9.228  0.00  0.00    -0.272 N 
ATOM      5  CD  PRO A   5      24.385  -1.059   9.297  0.00  0.00    +0.094 C 
ATOM      6  CG  PRO A   5      23.397  -1.594   8.289  0.00  0.00    +0.024 C 
ATOM      7  CB  PRO A   5      22.187  -0.756   8.565  0.00  0.00    +0.031 C 
ATOM      8  CA  PRO A   5      22.773   0.647   8.738  0.00  0.00    +0.152 C 
BRANCH   8   9
ATOM      9  C   PRO A   5      21.971   1.490   9.712  0.00  0.00    +0.241 C 
ATOM     10  O   PRO A   5      22.250   1.520  10.906  0.00  0.00    -0.273 OA
ATOM     11  N   SER A   6      20.954   2.158   9.192  0.00  0.00    -0.295 N 
ATOM     12  H   SER A   6      20.738   2.046   8.181  0.00  0.00    +0.150 HD
BRANCH  11  13
ATOM     13  CA  SER A   6      20.132   3.043   9.996  0.00  0.00    +0.178 C 
BRANCH  13  14
ATOM     14  C   SER A   6      19.052   2.479  10.913  0.00  0.00    +0.243 C 
ATOM     15  N   ASN A   7      19.006   3.031  12.123  0.00  0.00    -0.297 N 
ATOM     16  H   ASN A   7      19.747   3.710  12.388  0.00  0.00    +0.150 HD
ATOM     17  O   SER A   6      18.297   1.575  10.546  0.00  0.00    -0.273 OA
BRANCH  15  18
ATOM     18  CA  ASN A   7      17.963   2.725  13.091  0.00  0.00    +0.158 C 
BRANCH  18  19
ATOM     19  C   ASN A   7      17.364   4.130  13.127  0.00  0.00    +0.244 C 
ATOM     20  O   ASN A   7      18.066   5.095  13.439  0.00  0.00    -0.273 OA
ATOM     21  N   PRO A   8      16.055   4.270  12.877  0.00  0.00    -0.273 N 
ATOM     22  CD  PRO A   8      15.489   5.632  12.933  0.00  0.00    +0.094 C 
ATOM     23  CG  PRO A   8      13.975   5.380  12.795  0.00  0.00    +0.024 C 
ATOM     24  CB  PRO A   8      13.807   3.937  13.256  0.00  0.00    +0.030 C 
ATOM     25  CA  PRO A   8      14.995   3.305  12.572  0.00  0.00    +0.140 C 
BRANCH  25  26
ATOM     26  C   PRO A   8      14.643   2.978  11.116  0.00  0.00    +0.227 C 
ATOM     27  O   PRO A   8      13.722   2.196  10.884  0.00  0.00    -0.286 OA
ENDBRANCH  25  26
ENDBRANCH  18  19
BRANCH  18  28
ATOM     28  CB  ASN A   7      18.531   2.346  14.469  0.00  0.00    +0.114 C 
BRANCH  28  29
ATOM     29  CG  ASN A   7      17.441   2.192  15.524  0.00  0.00    +0.222 C 
ATOM     30  ND2 ASN A   7      17.848   1.962  16.768  0.00  0.00    -0.329 N 
ATOM     31 HD21 ASN A   7      17.150   1.848  17.531  0.00  0.00    +0.145 HD
ATOM     32 HD22 ASN A   7      18.864   1.896  16.979  0.00  0.00    +0.145 HD
ATOM     33  OD1 ASN A   7      16.250   2.279  15.225  0.00  0.00    -0.275 OA
ENDBRANCH  28  29
ENDBRANCH  18  28
ENDBRANCH  15  18
ENDBRANCH  13  14
BRANCH  13  34
ATOM     34  CB  SER A   6      19.463   4.069   9.077  0.00  0.00    +0.166 C 
BRANCH  34  35
ATOM     35  OG  SER A   6      18.388   4.705   9.745  0.00  0.00    -0.380 OA
ATOM     36  H   SER A   6      18.729   5.168  10.551  0.00  0.00    +0.211 HD
ENDBRANCH  34  35
ENDBRANCH  13  34
ENDBRANCH  11  13
ENDBRANCH   8   9
ENDBRANCH   1   2
BRANCH   1  38
ATOM     37  C   THR A   3      23.804   4.422  10.775  0.00  0.00    +0.243 C 
ATOM     38  N   ASN A   4      24.720   3.486  10.547  0.00  0.00    -0.297 N 
ATOM     39  H   ASN A   4      25.403   3.262  11.299  0.00  0.00    +0.150 HD
ATOM     40  O   THR A   3      22.933   4.734   9.964  0.00  0.00    -0.273 OA
BRANCH  37  41
ATOM     41  CA  THR A   3      23.902   5.125  12.118  0.00  0.00    +0.176 C 
BRANCH  41  44
ATOM     42  C   VAL A   2      25.231   7.143  12.209  0.00  0.00    +0.241 C 
ATOM     43  O   VAL A   2      26.086   6.613  12.921  0.00  0.00    -0.273 OA
ATOM     44  N   THR A   3      24.141   6.516  11.792  0.00  0.00    -0.295 N 
ATOM     45  H   THR A   3      23.443   7.033  11.219  0.00  0.00    +0.150 HD
BRANCH  42  46
ATOM     46  CA  VAL A   2      25.366   8.588  11.768  0.00  0.00    +0.148 C 
BRANCH  46  49
ATOM     47  C   LEU A   1      26.045  10.287  13.346  0.00  0.00    +0.238 C 
ATOM     48  O   LEU A   1      24.907  10.758  13.395  0.00  0.00    -0.274 OA
ATOM     49  N   VAL A   2      26.364   9.249  12.584  0.00  0.00    -0.297 N 
ATOM     50  H   VAL A   2      27.345   8.905  12.572  0.00  0.00    +0.150 HD
BRANCH  47  51
ATOM     51  CA  LEU A   1      27.176  10.896  14.151  0.00  0.00    +0.145 C 
BRANCH  51  52
ATOM     52  N   LEU A   1      27.272  12.288  13.734  0.00  0.00    -0.238 NA
ATOM     53  H   LEU A   1      26.457  12.921  13.860  0.00  0.00    +0.142 HD
ENDBRANCH  51  52
BRANCH  51  54
ATOM     54  CB  LEU A   1      26.879  10.786  15.651  0.00  0.00    +0.026 C 
BRANCH  54  55
ATOM     55  CG  LEU A   1      26.879   9.355  16.210  0.00  0.00    +0.002 C 
ATOM     56  CD2 LEU A   1      27.287   9.376  17.680  0.00  0.00    +0.000 C 
ATOM     57  CD1 LEU A   1      25.508   8.725  16.027  0.00  0.00    +0.000 C 
ENDBRANCH  54  55
ENDBRANCH  51  54
ENDBRANCH  47  51
ENDBRANCH  46  49
BRANCH  46  58
ATOM     58  CB  VAL A   2      25.750   8.621  10.266  0.00  0.00    +0.027 C 
ATOM     59  CG2 VAL A   2      27.025   7.816  10.022  0.00  0.00    +0.002 C 
ATOM     60  CG1 VAL A   2      25.940  10.061   9.818  0.00  0.00    +0.002 C 
ENDBRANCH  46  58
ENDBRANCH  42  46
ENDBRANCH  41  44
BRANCH  41  61
ATOM     61  CB  THR A   3      22.613   4.972  12.931  0.00  0.00    +0.137 C 
ATOM     62  CG2 THR A   3      22.413   3.525  13.331  0.00  0.00    +0.034 C 
BRANCH  61  63
ATOM     63  OG1 THR A   3      22.718   5.770  14.124  0.00  0.00    -0.382 OA
ATOM     64  HG1 THR A   3      22.847   6.719  13.874  0.00  0.00    +0.210 HD
ENDBRANCH  61  63
ENDBRANCH  41  61
ENDBRANCH  37  41
ENDBRANCH   1  38
BRANCH   1  65
ATOM     65  CB  ASN A   4      25.907   3.421   8.441  0.00  0.00    +0.114 C 
BRANCH  65  66
ATOM     66  CG  ASN A   4      26.306   2.600   7.235  0.00  0.00    +0.222 C 
ATOM     67  ND2 ASN A   4      27.603   2.572   6.942  0.00  0.00    -0.329 N 
ATOM     68 HD21 ASN A   4      28.283   3.083   7.541  0.00  0.00    +0.145 HD
ATOM     69 HD22 ASN A   4      27.938   2.039   6.114  0.00  0.00    +0.145 HD
ATOM     70  OD1 ASN A   4      25.462   2.015   6.563  0.00  0.00    -0.275 OA
ENDBRANCH  65  66
ENDBRANCH   1  65
TORSDOF 25
REMARK  Name = ../refined-set-2016/1m7y/1m7y_pocket.pdb
REMARK  243 active torsions:
REMARK  status: ('A' for Active; 'I' for Inactive)
REMARK    1  A    between atoms: _1  and  _3
REMARK    2  A    between atoms: _3  and  _4
REMARK    3  A    between atoms: _3  and  _6
REMARK    4  A    between atoms: _6  and  _7
REMARK    5  A    between atoms: _12  and  _13
REMARK    6  A    between atoms: _15  and  _17
REMARK    7  A    between atoms: _17  and  _18
REMARK    8  A    between atoms: _17  and  _20
REMARK    9  A    between atoms: _20  and  _21
REMARK   10  A    between atoms: _27  and  _29
REMARK   11  A    between atoms: _29  and  _30
REMARK   12  A    between atoms: _29  and  _32
REMARK   13  A    between atoms: _32  and  _33
REMARK   14  A    between atoms: _43  and  _45
REMARK   15  A    between atoms: _45  and  _46
REMARK   16  A    between atoms: _45  and  _48
REMARK   17  A    between atoms: _48  and  _49
REMARK   18  A    between atoms: _49  and  _50
REMARK   19  A    between atoms: _55  and  _57
REMARK   20  A    between atoms: _57  and  _58
REMARK   21  A    between atoms: _60  and  _62
REMARK   22  A    between atoms: _62  and  _63
REMARK   23  A    between atoms: _62  and  _65
REMARK   24  A    between atoms: _65  and  _66
REMARK   25  A    between atoms: _69  and  _71
REMARK   26  A    between atoms: _71  and  _72
REMARK   27  A    between atoms: _75  and  _77
REMARK   28  A    between atoms: _77  and  _78
REMARK   29  A    between atoms: _77  and  _80
REMARK   30  A    between atoms: _80  and  _81
REMARK   31  A    between atoms: _81  and  _82
REMARK   32  A    between atoms: _85  and  _87
REMARK   33  A    between atoms: _87  and  _88
REMARK   34  A    between atoms: _87  and  _90
REMARK   35  A    between atoms: _90  and  _91
REMARK   36  A    between atoms: _96  and  _98
REMARK   37  A    between atoms: _98  and  _99
REMARK   38  A    between atoms: _98  and  _101
REMARK   39  A    between atoms: _101  and  _102
REMARK   40  A    between atoms: _105  and  _107
REMARK   41  A    between atoms: _107  and  _108
REMARK   42  A    between atoms: _111  and  _113
REMARK   43  A    between atoms: _113  and  _114
REMARK   44  A    between atoms: _116  and  _118
REMARK   45  A    between atoms: _118  and  _119
REMARK   46  A    between atoms: _122  and  _124
REMARK   47  A    between atoms: _124  and  _125
REMARK   48  A    between atoms: _124  and  _127
REMARK   49  A    between atoms: _127  and  _128
REMARK   50  A    between atoms: _131  and  _133
REMARK   51  A    between atoms: _133  and  _134
REMARK   52  A    between atoms: _133  and  _136
REMARK   53  A    between atoms: _136  and  _137
REMARK   54  A    between atoms: _139  and  _141
REMARK   55  A    between atoms: _141  and  _142
REMARK   56  A    between atoms: _145  and  _147
REMARK   57  A    between atoms: _147  and  _148
REMARK   58  A    between atoms: _147  and  _150
REMARK   59  A    between atoms: _150  and  _151
REMARK   60  A    between atoms: _156  and  _158
REMARK   61  A    between atoms: _158  and  _159
REMARK   62  A    between atoms: _158  and  _161
REMARK   63  A    between atoms: _161  and  _162
REMARK   64  A    between atoms: _162  and  _163
REMARK   65  A    between atoms: _166  and  _168
REMARK   66  A    between atoms: _168  and  _169
REMARK   67  A    between atoms: _168  and  _171
REMARK   68  A    between atoms: _171  and  _172
REMARK   69  A    between atoms: _177  and  _178
REMARK   70  A    between atoms: _180  and  _182
REMARK   71  A    between atoms: _182  and  _183
REMARK   72  A    between atoms: _182  and  _185
REMARK   73  A    between atoms: _185  and  _186
REMARK   74  A    between atoms: _191  and  _192
REMARK   75  A    between atoms: _195  and  _196
REMARK   76  A    between atoms: _201  and  _203
REMARK   77  A    between atoms: _203  and  _204
REMARK   78  A    between atoms: _206  and  _208
REMARK   79  A    between atoms: _208  and  _209
REMARK   80  A    between atoms: _208  and  _211
REMARK   81  A    between atoms: _211  and  _212
REMARK   82  A    between atoms: _218  and  _220
REMARK   83  A    between atoms: _220  and  _221
REMARK   84  A    between atoms: _220  and  _223
REMARK   85  A    between atoms: _223  and  _224
REMARK   86  A    between atoms: _224  and  _225
REMARK   87  A    between atoms: _225  and  _226
REMARK   88  A    between atoms: _235  and  _237
REMARK   89  A    between atoms: _237  and  _238
REMARK   90  A    between atoms: _237  and  _240
REMARK   91  A    between atoms: _240  and  _241
REMARK   92  A    between atoms: _244  and  _246
REMARK   93  A    between atoms: _246  and  _247
REMARK   94  A    between atoms: _246  and  _249
REMARK   95  A    between atoms: _249  and  _250
REMARK   96  A    between atoms: _253  and  _255
REMARK   97  A    between atoms: _255  and  _256
REMARK   98  A    between atoms: _255  and  _258
REMARK   99  A    between atoms: _261  and  _263
REMARK  100  A    between atoms: _263  and  _264
REMARK  101  A    between atoms: _263  and  _266
REMARK  102  A    between atoms: _266  and  _267
REMARK  103  A    between atoms: _270  and  _272
REMARK  104  A    between atoms: _272  and  _273
REMARK  105  A    between atoms: _272  and  _275
REMARK  106  A    between atoms: _275  and  _276
REMARK  107  A    between atoms: _282  and  _283
REMARK  108  A    between atoms: _288  and  _290
REMARK  109  A    between atoms: _290  and  _291
REMARK  110  A    between atoms: _290  and  _293
REMARK  111  A    between atoms: _293  and  _294
REMARK  112  A    between atoms: _296  and  _298
REMARK  113  A    between atoms: _298  and  _299
REMARK  114  A    between atoms: _298  and  _301
REMARK  115  A    between atoms: _301  and  _302
REMARK  116  A    between atoms: _308  and  _309
REMARK  117  A    between atoms: _314  and  _316
REMARK  118  A    between atoms: _316  and  _317
REMARK  119  A    between atoms: _316  and  _319
REMARK  120  A    between atoms: _319  and  _320
REMARK  121  A    between atoms: _323  and  _325
REMARK  122  A    between atoms: _325  and  _326
REMARK  123  A    between atoms: _325  and  _328
REMARK  124  A    between atoms: _328  and  _329
REMARK  125  A    between atoms: _329  and  _330
REMARK  126  A    between atoms: _333  and  _335
REMARK  127  A    between atoms: _335  and  _336
REMARK  128  A    between atoms: _335  and  _338
REMARK  129  A    between atoms: _338  and  _339
REMARK  130  A    between atoms: _342  and  _344
REMARK  131  A    between atoms: _344  and  _345
REMARK  132  A    between atoms: _344  and  _347
REMARK  133  A    between atoms: _347  and  _348
REMARK  134  A    between atoms: _353  and  _354
REMARK  135  A    between atoms: _356  and  _358
REMARK  136  A    between atoms: _358  and  _359
REMARK  137  A    between atoms: _358  and  _361
REMARK  138  A    between atoms: _364  and  _366
REMARK  139  A    between atoms: _366  and  _367
REMARK  140  A    between atoms: _366  and  _369
REMARK  141  A    between atoms: _369  and  _370
REMARK  142  A    between atoms: _375  and  _376
REMARK  143  A    between atoms: _378  and  _380
REMARK  144  A    between atoms: _380  and  _381
REMARK  145  A    between atoms: _380  and  _383
REMARK  146  A    between atoms: _383  and  _384
REMARK  147  A    between atoms: _386  and  _388
REMARK  148  A    between atoms: _388  and  _389
REMARK  149  A    between atoms: _388  and  _391
REMARK  150  A    between atoms: _391  and  _392
REMARK  151  A    between atoms: _395  and  _397
REMARK  152  A    between atoms: _397  and  _398
REMARK  153  A    between atoms: _397  and  _400
REMARK  154  A    between atoms: _400  and  _401
REMARK  155  A    between atoms: _403  and  _405
REMARK  156  A    between atoms: _405  and  _406
REMARK  157  A    between atoms: _405  and  _408
REMARK  158  A    between atoms: _408  and  _409
REMARK  159  A    between atoms: _409  and  _410
REMARK  160  A    between atoms: _410  and  _411
REMARK  161  A    between atoms: _411  and  _412
REMARK  162  A    between atoms: _416  and  _418
REMARK  163  A    between atoms: _418  and  _419
REMARK  164  A    between atoms: _418  and  _421
REMARK  165  A    between atoms: _421  and  _422
REMARK  166  A    between atoms: _426  and  _427
REMARK  167  A    between atoms: _432  and  _434
REMARK  168  A    between atoms: _434  and  _435
REMARK  169  A    between atoms: _437  and  _439
REMARK  170  A    between atoms: _439  and  _440
REMARK  171  A    between atoms: _439  and  _442
REMARK  172  A    between atoms: _442  and  _443
REMARK  173  A    between atoms: _449  and  _451
REMARK  174  A    between atoms: _451  and  _452
REMARK  175  A    between atoms: _451  and  _454
REMARK  176  A    between atoms: _454  and  _455
REMARK  177  A    between atoms: _455  and  _456
REMARK  178  A    between atoms: _456  and  _457
REMARK  179  A    between atoms: _466  and  _468
REMARK  180  A    between atoms: _468  and  _469
REMARK  181  A    between atoms: _468  and  _471
REMARK  182  A    between atoms: _474  and  _476
REMARK  183  A    between atoms: _476  and  _477
REMARK  184  A    between atoms: _479  and  _481
REMARK  185  A    between atoms: _481  and  _482
REMARK  186  A    between atoms: _485  and  _487
REMARK  187  A    between atoms: _487  and  _488
REMARK  188  A    between atoms: _487  and  _490
REMARK  189  A    between atoms: _490  and  _491
REMARK  190  A    between atoms: _494  and  _496
REMARK  191  A    between atoms: _496  and  _497
REMARK  192  A    between atoms: _496  and  _499
REMARK  193  A    between atoms: _499  and  _500
REMARK  194  A    between atoms: _506  and  _508
REMARK  195  A    between atoms: _508  and  _509
REMARK  196  A    between atoms: _508  and  _511
REMARK  197  A    between atoms: _511  and  _512
REMARK  198  A    between atoms: _514  and  _516
REMARK  199  A    between atoms: _516  and  _517
REMARK  200  A    between atoms: _516  and  _519
REMARK  201  A    between atoms: _521  and  _523
REMARK  202  A    between atoms: _523  and  _524
REMARK  203  A    between atoms: _523  and  _526
REMARK  204  A    between atoms: _526  and  _527
REMARK  205  A    between atoms: _527  and  _528
REMARK  206  A    between atoms: _528  and  _529
REMARK  207  A    between atoms: _538  and  _540
REMARK  208  A    between atoms: _540  and  _541
REMARK  209  A    between atoms: _540  and  _543
REMARK  210  A    between atoms: _545  and  _547
REMARK  211  A    between atoms: _547  and  _548
REMARK  212  A    between atoms: _547  and  _550
REMARK  213  A    between atoms: _550  and  _551
REMARK  214  A    between atoms: _556  and  _558
REMARK  215  A    between atoms: _558  and  _559
REMARK  216  A    between atoms: _558  and  _561
REMARK  217  A    between atoms: _561  and  _562
REMARK  218  A    between atoms: _565  and  _567
REMARK  219  A    between atoms: _567  and  _568
REMARK  220  A    between atoms: _567  and  _570
REMARK  221  A    between atoms: _570  and  _571
REMARK  222  A    between atoms: _571  and  _572
REMARK  223  A    between atoms: _577  and  _579
REMARK  224  A    between atoms: _579  and  _580
REMARK  225  A    between atoms: _579  and  _582
REMARK  226  A    between atoms: _582  and  _583
REMARK  227  A    between atoms: _586  and  _588
REMARK  228  A    between atoms: _588  and  _589
REMARK  229  A    between atoms: _588  and  _591
REMARK  230  A    between atoms: _591  and  _592
REMARK  231  A    between atoms: _597  and  _598
REMARK  232  A    between atoms: _600  and  _602
REMARK  233  A    between atoms: _602  and  _603
REMARK  234  A    between atoms: _602  and  _605
REMARK  235  A    between atoms: _605  and  _606
REMARK  236  A    between atoms: _608  and  _610
REMARK  237  A    between atoms: _610  and  _611
REMARK  238  A    between atoms: _610  and  _613
REMARK  239  A    between atoms: _613  and  _614
REMARK  240  A    between atoms: _620  and  _622
REMARK  241  A    between atoms: _622  and  _623
REMARK  242  A    between atoms: _622  and  _625
REMARK  243  A    between atoms: _625  and  _626
REMARK                            x       y       z     vdW  Elec       q    Type
REMARK                         _______ _______ _______ _____ _____    ______ ____
ROOT
ATOM      1  C   GLU A   2      27.120  -0.859  13.516  0.00  0.00    +0.241 C 
ATOM      2  N   ILE A   3      26.378  -0.663  14.602  0.00  0.00    -0.297 N 
ATOM      3  H   ILE A   3      26.121   0.307  14.874  0.00  0.00    +0.150 HD
ATOM      4  O   GLU A   2      27.447  -1.980  13.124  0.00  0.00    -0.273 OA
ENDROOT
BRANCH   2   5
ATOM      5  CA  ILE A   3      25.917  -1.781  15.420  0.00  0.00    +0.149 C 
BRANCH   5   6
ATOM      6  C   ILE A   3      25.039  -2.748  14.611  0.00  0.00    +0.241 C 
ATOM      7  O   ILE A   3      24.929  -3.921  14.954  0.00  0.00    -0.273 OA
ATOM      8  N   TYR A   4      24.430  -2.267  13.530  0.00  0.00    -0.298 N 
ATOM      9  H   TYR A   4      24.562  -1.270  13.264  0.00  0.00    +0.150 HD
BRANCH   8  10
ATOM     10  CA  TYR A   4      23.575  -3.130  12.711  0.00  0.00    +0.141 C 
BRANCH  10  11
ATOM     11  C   TYR A   4      24.289  -3.658  11.471  0.00  0.00    +0.227 C 
ATOM     12  O   TYR A   4      23.666  -4.271  10.606  0.00  0.00    -0.286 OA
ENDBRANCH  10  11
BRANCH  10  13
ATOM     13  CB  TYR A   4      22.299  -2.373  12.301  0.00  0.00    +0.054 C 
BRANCH  13  14
ATOM     14  CG  TYR A   4      21.390  -2.080  13.476  0.00  0.00    -0.020 A 
ATOM     15  CD2 TYR A   4      20.682  -3.104  14.102  0.00  0.00    -0.001 A 
ATOM     16  CE2 TYR A   4      19.946  -2.870  15.264  0.00  0.00    +0.036 A 
ATOM     17  CZ  TYR A   4      19.914  -1.598  15.810  0.00  0.00    +0.134 A 
ATOM     18  CE1 TYR A   4      20.593  -0.559  15.200  0.00  0.00    +0.036 A 
ATOM     19  CD1 TYR A   4      21.329  -0.802  14.032  0.00  0.00    -0.001 A 
BRANCH  17  20
ATOM     20  OH  TYR A   4      19.247  -1.398  16.997  0.00  0.00    -0.506 OA
ATOM     21  HH  TYR A   4      19.889  -1.100  17.689  0.00  0.00    +0.292 HD
ENDBRANCH  17  20
ENDBRANCH  13  14
ENDBRANCH  10  13
ENDBRANCH   8  10
ENDBRANCH   5   6
BRANCH   5  22
ATOM     22  CB  ILE A   3      25.136  -1.262  16.659  0.00  0.00    +0.027 C 
ATOM     23  CG2 ILE A   3      23.861  -0.569  16.216  0.00  0.00    +0.002 C 
BRANCH  22  24
ATOM     24  CG1 ILE A   3      24.829  -2.414  17.619  0.00  0.00    +0.002 C 
ATOM     25  CD1 ILE A   3      24.193  -1.959  18.934  0.00  0.00    +0.000 C 
ENDBRANCH  22  24
ENDBRANCH   5  22
ENDBRANCH   2   5
BRANCH   1  26
ATOM     26  CA  GLU A   2      27.531   0.399  12.759  0.00  0.00    +0.149 C 
BRANCH  26  28
ATOM     27  C   ASP A   1      27.008   2.553  13.755  0.00  0.00    +0.239 C 
ATOM     28  N   GLU A   2      27.820   1.508  13.655  0.00  0.00    -0.297 N 
ATOM     29  H   GLU A   2      28.685   1.481  14.232  0.00  0.00    +0.150 HD
ATOM     30  O   ASP A   1      25.949   2.647  13.132  0.00  0.00    -0.274 OA
BRANCH  27  31
ATOM     31  CA  ASP A   1      27.464   3.666  14.693  0.00  0.00    +0.156 C 
BRANCH  31  32
ATOM     32  N   ASP A   1      27.937   4.714  13.796  0.00  0.00    -0.238 NA
ATOM     33  H   ASP A   1      27.291   5.488  13.541  0.00  0.00    +0.142 HD
ENDBRANCH  31  32
BRANCH  31  34
ATOM     34  CB  ASP A   1      26.289   4.177  15.531  0.00  0.00    +0.140 C 
BRANCH  34  35
ATOM     35  CG  ASP A   1      25.768   3.139  16.507  0.00  0.00    +0.367 C 
ATOM     36  OD2 ASP A   1      25.211   3.538  17.551  0.00  0.00    -0.246 OA
ATOM     37  OD1 ASP A   1      25.894   1.927  16.225  0.00  0.00    -0.246 OA
ENDBRANCH  34  35
ENDBRANCH  31  34
ENDBRANCH  27  31
ENDBRANCH  26  28
BRANCH  26  38
ATOM     38  CB  GLU A   2      28.760   0.150  11.867  0.00  0.00    +0.041 C 
BRANCH  38  39
ATOM     39  CG  GLU A   2      29.343   1.462  11.319  0.00  0.00    +0.116 C 
BRANCH  39  40
ATOM     40  CD  GLU A   2      30.222   1.306  10.084  0.00  0.00    +0.365 C 
ATOM     41  OE2 GLU A   2      30.875   0.256   9.922  0.00  0.00    -0.246 OA
ATOM     42  OE1 GLU A   2      30.275   2.263   9.279  0.00  0.00    -0.246 OA
ENDBRANCH  39  40
ENDBRANCH  38  39
ENDBRANCH  26  38
ENDBRANCH   1  26
TORSDOF 18
REMARK  Name = ../refined-set-2016/1m7y/1m7y_pocket.pdb
REMARK  243 active torsions:
REMARK  status: ('A' for Active; 'I' for Inactive)
REMARK    1  A    between atoms: _1  and  _3
REMARK    2  A    between atoms: _3  and  _4
REMARK    3  A    between atoms: _3  and  _6
REMARK    4  A    between atoms: _6  and  _7
REMARK    5  A    between atoms: _12  and  _13
REMARK    6  A    between atoms: _15  and  _17
REMARK    7  A    between atoms: _17  and  _18
REMARK    8  A    between atoms: _17  and  _20
REMARK    9  A    between atoms: _20  and  _21
REMARK   10  A    between atoms: _27  and  _29
REMARK   11  A    between atoms: _29  and  _30
REMARK   12  A    between atoms: _29  and  _32
REMARK   13  A    between atoms: _32  and  _33
REMARK   14  A    between atoms: _43  and  _45
REMARK   15  A    between atoms: _45  and  _46
REMARK   16  A    between atoms: _45  and  _48
REMARK   17  A    between atoms: _48  and  _49
REMARK   18  A    between atoms: _49  and  _50
REMARK   19  A    between atoms: _55  and  _57
REMARK   20  A    between atoms: _57  and  _58
REMARK   21  A    between atoms: _60  and  _62
REMARK   22  A    between atoms: _62  and  _63
REMARK   23  A    between atoms: _62  and  _65
REMARK   24  A    between atoms: _65  and  _66
REMARK   25  A    between atoms: _69  and  _71
REMARK   26  A    between atoms: _71  and  _72
REMARK   27  A    between atoms: _75  and  _77
REMARK   28  A    between atoms: _77  and  _78
REMARK   29  A    between atoms: _77  and  _80
REMARK   30  A    between atoms: _80  and  _81
REMARK   31  A    between atoms: _81  and  _82
REMARK   32  A    between atoms: _85  and  _87
REMARK   33  A    between atoms: _87  and  _88
REMARK   34  A    between atoms: _87  and  _90
REMARK   35  A    between atoms: _90  and  _91
REMARK   36  A    between atoms: _96  and  _98
REMARK   37  A    between atoms: _98  and  _99
REMARK   38  A    between atoms: _98  and  _101
REMARK   39  A    between atoms: _101  and  _102
REMARK   40  A    between atoms: _105  and  _107
REMARK   41  A    between atoms: _107  and  _108
REMARK   42  A    between atoms: _111  and  _113
REMARK   43  A    between atoms: _113  and  _114
REMARK   44  A    between atoms: _116  and  _118
REMARK   45  A    between atoms: _118  and  _119
REMARK   46  A    between atoms: _122  and  _124
REMARK   47  A    between atoms: _124  and  _125
REMARK   48  A    between atoms: _124  and  _127
REMARK   49  A    between atoms: _127  and  _128
REMARK   50  A    between atoms: _131  and  _133
REMARK   51  A    between atoms: _133  and  _134
REMARK   52  A    between atoms: _133  and  _136
REMARK   53  A    between atoms: _136  and  _137
REMARK   54  A    between atoms: _139  and  _141
REMARK   55  A    between atoms: _141  and  _142
REMARK   56  A    between atoms: _145  and  _147
REMARK   57  A    between atoms: _147  and  _148
REMARK   58  A    between atoms: _147  and  _150
REMARK   59  A    between atoms: _150  and  _151
REMARK   60  A    between atoms: _156  and  _158
REMARK   61  A    between atoms: _158  and  _159
REMARK   62  A    between atoms: _158  and  _161
REMARK   63  A    between atoms: _161  and  _162
REMARK   64  A    between atoms: _162  and  _163
REMARK   65  A    between atoms: _166  and  _168
REMARK   66  A    between atoms: _168  and  _169
REMARK   67  A    between atoms: _168  and  _171
REMARK   68  A    between atoms: _171  and  _172
REMARK   69  A    between atoms: _177  and  _178
REMARK   70  A    between atoms: _180  and  _182
REMARK   71  A    between atoms: _182  and  _183
REMARK   72  A    between atoms: _182  and  _185
REMARK   73  A    between atoms: _185  and  _186
REMARK   74  A    between atoms: _191  and  _192
REMARK   75  A    between atoms: _195  and  _196
REMARK   76  A    between atoms: _201  and  _203
REMARK   77  A    between atoms: _203  and  _204
REMARK   78  A    between atoms: _206  and  _208
REMARK   79  A    between atoms: _208  and  _209
REMARK   80  A    between atoms: _208  and  _211
REMARK   81  A    between atoms: _211  and  _212
REMARK   82  A    between atoms: _218  and  _220
REMARK   83  A    between atoms: _220  and  _221
REMARK   84  A    between atoms: _220  and  _223
REMARK   85  A    between atoms: _223  and  _224
REMARK   86  A    between atoms: _224  and  _225
REMARK   87  A    between atoms: _225  and  _226
REMARK   88  A    between atoms: _235  and  _237
REMARK   89  A    between atoms: _237  and  _238
REMARK   90  A    between atoms: _237  and  _240
REMARK   91  A    between atoms: _240  and  _241
REMARK   92  A    between atoms: _244  and  _246
REMARK   93  A    between atoms: _246  and  _247
REMARK   94  A    between atoms: _246  and  _249
REMARK   95  A    between atoms: _249  and  _250
REMARK   96  A    between atoms: _253  and  _255
REMARK   97  A    between atoms: _255  and  _256
REMARK   98  A    between atoms: _255  and  _258
REMARK   99  A    between atoms: _261  and  _263
REMARK  100  A    between atoms: _263  and  _264
REMARK  101  A    between atoms: _263  and  _266
REMARK  102  A    between atoms: _266  and  _267
REMARK  103  A    between atoms: _270  and  _272
REMARK  104  A    between atoms: _272  and  _273
REMARK  105  A    between atoms: _272  and  _275
REMARK  106  A    between atoms: _275  and  _276
REMARK  107  A    between atoms: _282  and  _283
REMARK  108  A    between atoms: _288  and  _290
REMARK  109  A    between atoms: _290  and  _291
REMARK  110  A    between atoms: _290  and  _293
REMARK  111  A    between atoms: _293  and  _294
REMARK  112  A    between atoms: _296  and  _298
REMARK  113  A    between atoms: _298  and  _299
REMARK  114  A    between atoms: _298  and  _301
REMARK  115  A    between atoms: _301  and  _302
REMARK  116  A    between atoms: _308  and  _309
REMARK  117  A    between atoms: _314  and  _316
REMARK  118  A    between atoms: _316  and  _317
REMARK  119  A    between atoms: _316  and  _319
REMARK  120  A    between atoms: _319  and  _320
REMARK  121  A    between atoms: _323  and  _325
REMARK  122  A    between atoms: _325  and  _326
REMARK  123  A    between atoms: _325  and  _328
REMARK  124  A    between atoms: _328  and  _329
REMARK  125  A    between atoms: _329  and  _330
REMARK  126  A    between atoms: _333  and  _335
REMARK  127  A    between atoms: _335  and  _336
REMARK  128  A    between atoms: _335  and  _338
REMARK  129  A    between atoms: _338  and  _339
REMARK  130  A    between atoms: _342  and  _344
REMARK  131  A    between atoms: _344  and  _345
REMARK  132  A    between atoms: _344  and  _347
REMARK  133  A    between atoms: _347  and  _348
REMARK  134  A    between atoms: _353  and  _354
REMARK  135  A    between atoms: _356  and  _358
REMARK  136  A    between atoms: _358  and  _359
REMARK  137  A    between atoms: _358  and  _361
REMARK  138  A    between atoms: _364  and  _366
REMARK  139  A    between atoms: _366  and  _367
REMARK  140  A    between atoms: _366  and  _369
REMARK  141  A    between atoms: _369  and  _370
REMARK  142  A    between atoms: _375  and  _376
REMARK  143  A    between atoms: _378  and  _380
REMARK  144  A    between atoms: _380  and  _381
REMARK  145  A    between atoms: _380  and  _383
REMARK  146  A    between atoms: _383  and  _384
REMARK  147  A    between atoms: _386  and  _388
REMARK  148  A    between atoms: _388  and  _389
REMARK  149  A    between atoms: _388  and  _391
REMARK  150  A    between atoms: _391  and  _392
REMARK  151  A    between atoms: _395  and  _397
REMARK  152  A    between atoms: _397  and  _398
REMARK  153  A    between atoms: _397  and  _400
REMARK  154  A    between atoms: _400  and  _401
REMARK  155  A    between atoms: _403  and  _405
REMARK  156  A    between atoms: _405  and  _406
REMARK  157  A    between atoms: _405  and  _408
REMARK  158  A    between atoms: _408  and  _409
REMARK  159  A    between atoms: _409  and  _410
REMARK  160  A    between atoms: _410  and  _411
REMARK  161  A    between atoms: _411  and  _412
REMARK  162  A    between atoms: _416  and  _418
REMARK  163  A    between atoms: _418  and  _419
REMARK  164  A    between atoms: _418  and  _421
REMARK  165  A    between atoms: _421  and  _422
REMARK  166  A    between atoms: _426  and  _427
REMARK  167  A    between atoms: _432  and  _434
REMARK  168  A    between atoms: _434  and  _435
REMARK  169  A    between atoms: _437  and  _439
REMARK  170  A    between atoms: _439  and  _440
REMARK  171  A    between atoms: _439  and  _442
REMARK  172  A    between atoms: _442  and  _443
REMARK  173  A    between atoms: _449  and  _451
REMARK  174  A    between atoms: _451  and  _452
REMARK  175  A    between atoms: _451  and  _454
REMARK  176  A    between atoms: _454  and  _455
REMARK  177  A    between atoms: _455  and  _456
REMARK  178  A    between atoms: _456  and  _457
REMARK  179  A    between atoms: _466  and  _468
REMARK  180  A    between atoms: _468  and  _469
REMARK  181  A    between atoms: _468  and  _471
REMARK  182  A    between atoms: _474  and  _476
REMARK  183  A    between atoms: _476  and  _477
REMARK  184  A    between atoms: _479  and  _481
REMARK  185  A    between atoms: _481  and  _482
REMARK  186  A    between atoms: _485  and  _487
REMARK  187  A    between atoms: _487  and  _488
REMARK  188  A    between atoms: _487  and  _490
REMARK  189  A    between atoms: _490  and  _491
REMARK  190  A    between atoms: _494  and  _496
REMARK  191  A    between atoms: _496  and  _497
REMARK  192  A    between atoms: _496  and  _499
REMARK  193  A    between atoms: _499  and  _500
REMARK  194  A    between atoms: _506  and  _508
REMARK  195  A    between atoms: _508  and  _509
REMARK  196  A    between atoms: _508  and  _511
REMARK  197  A    between atoms: _511  and  _512
REMARK  198  A    between atoms: _514  and  _516
REMARK  199  A    between atoms: _516  and  _517
REMARK  200  A    between atoms: _516  and  _519
REMARK  201  A    between atoms: _521  and  _523
REMARK  202  A    between atoms: _523  and  _524
REMARK  203  A    between atoms: _523  and  _526
REMARK  204  A    between atoms: _526  and  _527
REMARK  205  A    between atoms: _527  and  _528
REMARK  206  A    between atoms: _528  and  _529
REMARK  207  A    between atoms: _538  and  _540
REMARK  208  A    between atoms: _540  and  _541
REMARK  209  A    between atoms: _540  and  _543
REMARK  210  A    between atoms: _545  and  _547
REMARK  211  A    between atoms: _547  and  _548
REMARK  212  A    between atoms: _547  and  _550
REMARK  213  A    between atoms: _550  and  _551
REMARK  214  A    between atoms: _556  and  _558
REMARK  215  A    between atoms: _558  and  _559
REMARK  216  A    between atoms: _558  and  _561
REMARK  217  A    between atoms: _561  and  _562
REMARK  218  A    between atoms: _565  and  _567
REMARK  219  A    between atoms: _567  and  _568
REMARK  220  A    between atoms: _567  and  _570
REMARK  221  A    between atoms: _570  and  _571
REMARK  222  A    between atoms: _571  and  _572
REMARK  223  A    between atoms: _577  and  _579
REMARK  224  A    between atoms: _579  and  _580
REMARK  225  A    between atoms: _579  and  _582
REMARK  226  A    between atoms: _582  and  _583
REMARK  227  A    between atoms: _586  and  _588
REMARK  228  A    between atoms: _588  and  _589
REMARK  229  A    between atoms: _588  and  _591
REMARK  230  A    between atoms: _591  and  _592
REMARK  231  A    between atoms: _597  and  _598
REMARK  232  A    between atoms: _600  and  _602
REMARK  233  A    between atoms: _602  and  _603
REMARK  234  A    between atoms: _602  and  _605
REMARK  235  A    between atoms: _605  and  _606
REMARK  236  A    between atoms: _608  and  _610
REMARK  237  A    between atoms: _610  and  _611
REMARK  238  A    between atoms: _610  and  _613
REMARK  239  A    between atoms: _613  and  _614
REMARK  240  A    between atoms: _620  and  _622
REMARK  241  A    between atoms: _622  and  _623
REMARK  242  A    between atoms: _622  and  _625
REMARK  243  A    between atoms: _625  and  _626
REMARK                            x       y       z     vdW  Elec       q    Type
REMARK                         _______ _______ _______ _____ _____    ______ ____
ROOT
ATOM      1  C   SER A   3      27.946  -5.225  19.213  0.00  0.00    +0.243 C 
ATOM      2  N   LEU A   4      27.880  -6.174  20.143  0.00  0.00    -0.297 N 
ATOM      3  H   LEU A   4      28.185  -5.965  21.115  0.00  0.00    +0.150 HD
ATOM      4  O   SER A   3      27.625  -5.414  18.045  0.00  0.00    -0.273 OA
ENDROOT
BRANCH   2   5
ATOM      5  CA  LEU A   4      27.381  -7.511  19.811  0.00  0.00    +0.149 C 
BRANCH   5   6
ATOM      6  C   LEU A   4      25.927  -7.662  20.228  0.00  0.00    +0.241 C 
ATOM      7  N   SER A   5      25.295  -6.553  20.586  0.00  0.00    -0.295 N 
ATOM      8  H   SER A   5      25.791  -5.640  20.537  0.00  0.00    +0.150 HD
ATOM      9  O   LEU A   4      25.376  -8.757  20.210  0.00  0.00    -0.273 OA
BRANCH   7  10
ATOM     10  CA  SER A   5      23.916  -6.599  21.046  0.00  0.00    +0.178 C 
BRANCH  10  11
ATOM     11  C   SER A   5      22.862  -6.995  20.041  0.00  0.00    +0.243 C 
ATOM     12  O   SER A   5      21.916  -7.715  20.374  0.00  0.00    -0.273 OA
ATOM     13  N   LYS A   6      23.030  -6.532  18.812  0.00  0.00    -0.298 N 
ATOM     14  H   LYS A   6      23.890  -5.995  18.579  0.00  0.00    +0.150 HD
BRANCH  13  15
ATOM     15  CA  LYS A   6      22.027  -6.765  17.784  0.00  0.00    +0.137 C 
BRANCH  15  16
ATOM     16  C   LYS A   6      22.229  -7.908  16.806  0.00  0.00    +0.227 C 
ATOM     17  O   LYS A   6      21.264  -8.589  16.465  0.00  0.00    -0.286 OA
ENDBRANCH  15  16
BRANCH  15  18
ATOM     18  CB  LYS A   6      21.791  -5.453  17.033  0.00  0.00    +0.028 C 
BRANCH  18  19
ATOM     19  CG  LYS A   6      21.593  -4.271  17.979  0.00  0.00    -0.000 C 
BRANCH  19  20
ATOM     20  CD  LYS A   6      20.466  -4.527  18.990  0.00  0.00    -0.024 C 
BRANCH  20  21
ATOM     21  CE  LYS A   6      20.415  -3.433  20.060  0.00  0.00    -0.086 C 
BRANCH  21  22
ATOM     22  NZ  LYS A   6      19.405  -3.716  21.130  0.00  0.00    +0.380 N 
ATOM     23  HZ1 LYS A   6      19.414  -2.944  21.826  0.00  0.00    -0.089 HD
ATOM     24  HZ2 LYS A   6      19.643  -4.612  21.601  0.00  0.00    -0.089 HD
ATOM     25  HZ3 LYS A   6      18.460  -3.788  20.702  0.00  0.00    -0.089 HD
ENDBRANCH  21  22
ENDBRANCH  20  21
ENDBRANCH  19  20
ENDBRANCH  18  19
ENDBRANCH  15  18
ENDBRANCH  13  15
ENDBRANCH  10  11
BRANCH  10  26
ATOM     26  CB  SER A   5      23.524  -5.245  21.625  0.00  0.00    +0.166 C 
BRANCH  26  27
ATOM     27  OG  SER A   5      24.258  -4.993  22.800  0.00  0.00    -0.380 OA
ATOM     28  H   SER A   5      23.997  -4.112  23.168  0.00  0.00    +0.211 HD
ENDBRANCH  26  27
ENDBRANCH  10  26
ENDBRANCH   7  10
ENDBRANCH   5   6
BRANCH   5  29
ATOM     29  CB  LEU A   4      28.212  -8.590  20.518  0.00  0.00    +0.029 C 
BRANCH  29  30
ATOM     30  CG  LEU A   4      29.716  -8.576  20.236  0.00  0.00    +0.002 C 
ATOM     31  CD2 LEU A   4      30.395  -9.720  20.980  0.00  0.00    +0.000 C 
ATOM     32  CD1 LEU A   4      29.951  -8.690  18.735  0.00  0.00    +0.000 C 
ENDBRANCH  29  30
ENDBRANCH   5  29
ENDBRANCH   2   5
BRANCH   1  33
ATOM     33  CA  SER A   3      28.462  -3.861  19.640  0.00  0.00    +0.178 C 
BRANCH  33  36
ATOM     34  C   TYR A   2      29.660  -2.055  18.529  0.00  0.00    +0.241 C 
ATOM     35  O   TYR A   2      29.976  -1.545  19.603  0.00  0.00    -0.273 OA
ATOM     36  N   SER A   3      28.928  -3.162  18.449  0.00  0.00    -0.295 N 
ATOM     37  H   SER A   3      28.681  -3.539  17.512  0.00  0.00    +0.150 HD
BRANCH  34  38
ATOM     38  CA  TYR A   2      30.083  -1.406  17.209  0.00  0.00    +0.153 C 
BRANCH  38  40
ATOM     39  C   VAL A   1      30.450   0.929  16.668  0.00  0.00    +0.238 C 
ATOM     40  N   TYR A   2      30.649  -0.094  17.488  0.00  0.00    -0.297 N 
ATOM     41  H   TYR A   2      31.220   0.043  18.346  0.00  0.00    +0.150 HD
ATOM     42  O   VAL A   1      29.781   0.832  15.639  0.00  0.00    -0.274 OA
BRANCH  39  43
ATOM     43  CA  VAL A   1      31.103   2.258  17.051  0.00  0.00    +0.145 C 
BRANCH  43  44
ATOM     44  CB  VAL A   1      30.055   3.187  17.700  0.00  0.00    +0.025 C 
ATOM     45  CG2 VAL A   1      29.255   2.424  18.761  0.00  0.00    +0.002 C 
ATOM     46  CG1 VAL A   1      30.759   4.377  18.356  0.00  0.00    +0.002 C 
ENDBRANCH  43  44
BRANCH  43  47
ATOM     47  N   VAL A   1      31.632   2.818  15.812  0.00  0.00    -0.238 NA
ATOM     48  H   VAL A   1      30.967   3.049  15.047  0.00  0.00    +0.142 HD
ENDBRANCH  43  47
ENDBRANCH  39  43
ENDBRANCH  38  40
BRANCH  38  49
ATOM     49  CB  TYR A   2      31.133  -2.254  16.469  0.00  0.00    +0.055 C 
BRANCH  49  50
ATOM     50  CG  TYR A   2      30.713  -3.676  16.187  0.00  0.00    -0.020 A 
ATOM     51  CD2 TYR A   2      31.497  -4.742  16.616  0.00  0.00    -0.001 A 
ATOM     52  CE2 TYR A   2      31.108  -6.057  16.398  0.00  0.00    +0.036 A 
ATOM     53  CZ  TYR A   2      29.921  -6.315  15.742  0.00  0.00    +0.134 A 
ATOM     54  CE1 TYR A   2      29.120  -5.273  15.295  0.00  0.00    +0.036 A 
ATOM     55  CD1 TYR A   2      29.521  -3.958  15.519  0.00  0.00    -0.001 A 
BRANCH  53  56
ATOM     56  OH  TYR A   2      29.525  -7.619  15.561  0.00  0.00    -0.506 OA
ATOM     57  HH  TYR A   2      28.661  -7.636  15.078  0.00  0.00    +0.292 HD
ENDBRANCH  53  56
ENDBRANCH  49  50
ENDBRANCH  38  49
ENDBRANCH  34  38
ENDBRANCH  33  36
BRANCH  33  58
ATOM     58  CB  SER A   3      27.341  -3.050  20.297  0.00  0.00    +0.166 C 
BRANCH  58  59
ATOM     59  OG  SER A   3      26.433  -3.868  21.005  0.00  0.00    -0.380 OA
ATOM     60  H   SER A   3      25.729  -3.303  21.411  0.00  0.00    +0.211 HD
ENDBRANCH  58  59
ENDBRANCH  33  58
ENDBRANCH   1  33
TORSDOF 27
REMARK  Name = ../refined-set-2016/1m7y/1m7y_pocket.pdb
REMARK  243 active torsions:
REMARK  status: ('A' for Active; 'I' for Inactive)
REMARK    1  A    between atoms: _1  and  _3
REMARK    2  A    between atoms: _3  and  _4
REMARK    3  A    between atoms: _3  and  _6
REMARK    4  A    between atoms: _6  and  _7
REMARK    5  A    between atoms: _12  and  _13
REMARK    6  A    between atoms: _15  and  _17
REMARK    7  A    between atoms: _17  and  _18
REMARK    8  A    between atoms: _17  and  _20
REMARK    9  A    between atoms: _20  and  _21
REMARK   10  A    between atoms: _27  and  _29
REMARK   11  A    between atoms: _29  and  _30
REMARK   12  A    between atoms: _29  and  _32
REMARK   13  A    between atoms: _32  and  _33
REMARK   14  A    between atoms: _43  and  _45
REMARK   15  A    between atoms: _45  and  _46
REMARK   16  A    between atoms: _45  and  _48
REMARK   17  A    between atoms: _48  and  _49
REMARK   18  A    between atoms: _49  and  _50
REMARK   19  A    between atoms: _55  and  _57
REMARK   20  A    between atoms: _57  and  _58
REMARK   21  A    between atoms: _60  and  _62
REMARK   22  A    between atoms: _62  and  _63
REMARK   23  A    between atoms: _62  and  _65
REMARK   24  A    between atoms: _65  and  _66
REMARK   25  A    between atoms: _69  and  _71
REMARK   26  A    between atoms: _71  and  _72
REMARK   27  A    between atoms: _75  and  _77
REMARK   28  A    between atoms: _77  and  _78
REMARK   29  A    between atoms: _77  and  _80
REMARK   30  A    between atoms: _80  and  _81
REMARK   31  A    between atoms: _81  and  _82
REMARK   32  A    between atoms: _85  and  _87
REMARK   33  A    between atoms: _87  and  _88
REMARK   34  A    between atoms: _87  and  _90
REMARK   35  A    between atoms: _90  and  _91
REMARK   36  A    between atoms: _96  and  _98
REMARK   37  A    between atoms: _98  and  _99
REMARK   38  A    between atoms: _98  and  _101
REMARK   39  A    between atoms: _101  and  _102
REMARK   40  A    between atoms: _105  and  _107
REMARK   41  A    between atoms: _107  and  _108
REMARK   42  A    between atoms: _111  and  _113
REMARK   43  A    between atoms: _113  and  _114
REMARK   44  A    between atoms: _116  and  _118
REMARK   45  A    between atoms: _118  and  _119
REMARK   46  A    between atoms: _122  and  _124
REMARK   47  A    between atoms: _124  and  _125
REMARK   48  A    between atoms: _124  and  _127
REMARK   49  A    between atoms: _127  and  _128
REMARK   50  A    between atoms: _131  and  _133
REMARK   51  A    between atoms: _133  and  _134
REMARK   52  A    between atoms: _133  and  _136
REMARK   53  A    between atoms: _136  and  _137
REMARK   54  A    between atoms: _139  and  _141
REMARK   55  A    between atoms: _141  and  _142
REMARK   56  A    between atoms: _145  and  _147
REMARK   57  A    between atoms: _147  and  _148
REMARK   58  A    between atoms: _147  and  _150
REMARK   59  A    between atoms: _150  and  _151
REMARK   60  A    between atoms: _156  and  _158
REMARK   61  A    between atoms: _158  and  _159
REMARK   62  A    between atoms: _158  and  _161
REMARK   63  A    between atoms: _161  and  _162
REMARK   64  A    between atoms: _162  and  _163
REMARK   65  A    between atoms: _166  and  _168
REMARK   66  A    between atoms: _168  and  _169
REMARK   67  A    between atoms: _168  and  _171
REMARK   68  A    between atoms: _171  and  _172
REMARK   69  A    between atoms: _177  and  _178
REMARK   70  A    between atoms: _180  and  _182
REMARK   71  A    between atoms: _182  and  _183
REMARK   72  A    between atoms: _182  and  _185
REMARK   73  A    between atoms: _185  and  _186
REMARK   74  A    between atoms: _191  and  _192
REMARK   75  A    between atoms: _195  and  _196
REMARK   76  A    between atoms: _201  and  _203
REMARK   77  A    between atoms: _203  and  _204
REMARK   78  A    between atoms: _206  and  _208
REMARK   79  A    between atoms: _208  and  _209
REMARK   80  A    between atoms: _208  and  _211
REMARK   81  A    between atoms: _211  and  _212
REMARK   82  A    between atoms: _218  and  _220
REMARK   83  A    between atoms: _220  and  _221
REMARK   84  A    between atoms: _220  and  _223
REMARK   85  A    between atoms: _223  and  _224
REMARK   86  A    between atoms: _224  and  _225
REMARK   87  A    between atoms: _225  and  _226
REMARK   88  A    between atoms: _235  and  _237
REMARK   89  A    between atoms: _237  and  _238
REMARK   90  A    between atoms: _237  and  _240
REMARK   91  A    between atoms: _240  and  _241
REMARK   92  A    between atoms: _244  and  _246
REMARK   93  A    between atoms: _246  and  _247
REMARK   94  A    between atoms: _246  and  _249
REMARK   95  A    between atoms: _249  and  _250
REMARK   96  A    between atoms: _253  and  _255
REMARK   97  A    between atoms: _255  and  _256
REMARK   98  A    between atoms: _255  and  _258
REMARK   99  A    between atoms: _261  and  _263
REMARK  100  A    between atoms: _263  and  _264
REMARK  101  A    between atoms: _263  and  _266
REMARK  102  A    between atoms: _266  and  _267
REMARK  103  A    between atoms: _270  and  _272
REMARK  104  A    between atoms: _272  and  _273
REMARK  105  A    between atoms: _272  and  _275
REMARK  106  A    between atoms: _275  and  _276
REMARK  107  A    between atoms: _282  and  _283
REMARK  108  A    between atoms: _288  and  _290
REMARK  109  A    between atoms: _290  and  _291
REMARK  110  A    between atoms: _290  and  _293
REMARK  111  A    between atoms: _293  and  _294
REMARK  112  A    between atoms: _296  and  _298
REMARK  113  A    between atoms: _298  and  _299
REMARK  114  A    between atoms: _298  and  _301
REMARK  115  A    between atoms: _301  and  _302
REMARK  116  A    between atoms: _308  and  _309
REMARK  117  A    between atoms: _314  and  _316
REMARK  118  A    between atoms: _316  and  _317
REMARK  119  A    between atoms: _316  and  _319
REMARK  120  A    between atoms: _319  and  _320
REMARK  121  A    between atoms: _323  and  _325
REMARK  122  A    between atoms: _325  and  _326
REMARK  123  A    between atoms: _325  and  _328
REMARK  124  A    between atoms: _328  and  _329
REMARK  125  A    between atoms: _329  and  _330
REMARK  126  A    between atoms: _333  and  _335
REMARK  127  A    between atoms: _335  and  _336
REMARK  128  A    between atoms: _335  and  _338
REMARK  129  A    between atoms: _338  and  _339
REMARK  130  A    between atoms: _342  and  _344
REMARK  131  A    between atoms: _344  and  _345
REMARK  132  A    between atoms: _344  and  _347
REMARK  133  A    between atoms: _347  and  _348
REMARK  134  A    between atoms: _353  and  _354
REMARK  135  A    between atoms: _356  and  _358
REMARK  136  A    between atoms: _358  and  _359
REMARK  137  A    between atoms: _358  and  _361
REMARK  138  A    between atoms: _364  and  _366
REMARK  139  A    between atoms: _366  and  _367
REMARK  140  A    between atoms: _366  and  _369
REMARK  141  A    between atoms: _369  and  _370
REMARK  142  A    between atoms: _375  and  _376
REMARK  143  A    between atoms: _378  and  _380
REMARK  144  A    between atoms: _380  and  _381
REMARK  145  A    between atoms: _380  and  _383
REMARK  146  A    between atoms: _383  and  _384
REMARK  147  A    between atoms: _386  and  _388
REMARK  148  A    between atoms: _388  and  _389
REMARK  149  A    between atoms: _388  and  _391
REMARK  150  A    between atoms: _391  and  _392
REMARK  151  A    between atoms: _395  and  _397
REMARK  152  A    between atoms: _397  and  _398
REMARK  153  A    between atoms: _397  and  _400
REMARK  154  A    between atoms: _400  and  _401
REMARK  155  A    between atoms: _403  and  _405
REMARK  156  A    between atoms: _405  and  _406
REMARK  157  A    between atoms: _405  and  _408
REMARK  158  A    between atoms: _408  and  _409
REMARK  159  A    between atoms: _409  and  _410
REMARK  160  A    between atoms: _410  and  _411
REMARK  161  A    between atoms: _411  and  _412
REMARK  162  A    between atoms: _416  and  _418
REMARK  163  A    between atoms: _418  and  _419
REMARK  164  A    between atoms: _418  and  _421
REMARK  165  A    between atoms: _421  and  _422
REMARK  166  A    between atoms: _426  and  _427
REMARK  167  A    between atoms: _432  and  _434
REMARK  168  A    between atoms: _434  and  _435
REMARK  169  A    between atoms: _437  and  _439
REMARK  170  A    between atoms: _439  and  _440
REMARK  171  A    between atoms: _439  and  _442
REMARK  172  A    between atoms: _442  and  _443
REMARK  173  A    between atoms: _449  and  _451
REMARK  174  A    between atoms: _451  and  _452
REMARK  175  A    between atoms: _451  and  _454
REMARK  176  A    between atoms: _454  and  _455
REMARK  177  A    between atoms: _455  and  _456
REMARK  178  A    between atoms: _456  and  _457
REMARK  179  A    between atoms: _466  and  _468
REMARK  180  A    between atoms: _468  and  _469
REMARK  181  A    between atoms: _468  and  _471
REMARK  182  A    between atoms: _474  and  _476
REMARK  183  A    between atoms: _476  and  _477
REMARK  184  A    between atoms: _479  and  _481
REMARK  185  A    between atoms: _481  and  _482
REMARK  186  A    between atoms: _485  and  _487
REMARK  187  A    between atoms: _487  and  _488
REMARK  188  A    between atoms: _487  and  _490
REMARK  189  A    between atoms: _490  and  _491
REMARK  190  A    between atoms: _494  and  _496
REMARK  191  A    between atoms: _496  and  _497
REMARK  192  A    between atoms: _496  and  _499
REMARK  193  A    between atoms: _499  and  _500
REMARK  194  A    between atoms: _506  and  _508
REMARK  195  A    between atoms: _508  and  _509
REMARK  196  A    between atoms: _508  and  _511
REMARK  197  A    between atoms: _511  and  _512
REMARK  198  A    between atoms: _514  and  _516
REMARK  199  A    between atoms: _516  and  _517
REMARK  200  A    between atoms: _516  and  _519
REMARK  201  A    between atoms: _521  and  _523
REMARK  202  A    between atoms: _523  and  _524
REMARK  203  A    between atoms: _523  and  _526
REMARK  204  A    between atoms: _526  and  _527
REMARK  205  A    between atoms: _527  and  _528
REMARK  206  A    between atoms: _528  and  _529
REMARK  207  A    between atoms: _538  and  _540
REMARK  208  A    between atoms: _540  and  _541
REMARK  209  A    between atoms: _540  and  _543
REMARK  210  A    between atoms: _545  and  _547
REMARK  211  A    between atoms: _547  and  _548
REMARK  212  A    between atoms: _547  and  _550
REMARK  213  A    between atoms: _550  and  _551
REMARK  214  A    between atoms: _556  and  _558
REMARK  215  A    between atoms: _558  and  _559
REMARK  216  A    between atoms: _558  and  _561
REMARK  217  A    between atoms: _561  and  _562
REMARK  218  A    between atoms: _565  and  _567
REMARK  219  A    between atoms: _567  and  _568
REMARK  220  A    between atoms: _567  and  _570
REMARK  221  A    between atoms: _570  and  _571
REMARK  222  A    between atoms: _571  and  _572
REMARK  223  A    between atoms: _577  and  _579
REMARK  224  A    between atoms: _579  and  _580
REMARK  225  A    between atoms: _579  and  _582
REMARK  226  A    between atoms: _582  and  _583
REMARK  227  A    between atoms: _586  and  _588
REMARK  228  A    between atoms: _588  and  _589
REMARK  229  A    between atoms: _588  and  _591
REMARK  230  A    between atoms: _591  and  _592
REMARK  231  A    between atoms: _597  and  _598
REMARK  232  A    between atoms: _600  and  _602
REMARK  233  A    between atoms: _602  and  _603
REMARK  234  A    between atoms: _602  and  _605
REMARK  235  A    between atoms: _605  and  _606
REMARK  236  A    between atoms: _608  and  _610
REMARK  237  A    between atoms: _610  and  _611
REMARK  238  A    between atoms: _610  and  _613
REMARK  239  A    between atoms: _613  and  _614
REMARK  240  A    between atoms: _620  and  _622
REMARK  241  A    between atoms: _622  and  _623
REMARK  242  A    between atoms: _622  and  _625
REMARK  243  A    between atoms: _625  and  _626
REMARK                            x       y       z     vdW  Elec       q    Type
REMARK                         _______ _______ _______ _____ _____    ______ ____
ROOT
ATOM      1  C   PHE A   4      27.460  -7.898  27.935  0.00  0.00    +0.241 C 
ATOM      2  O   PHE A   4      28.621  -7.862  28.337  0.00  0.00    -0.273 OA
ATOM      3  N   ARG A   5      26.833  -6.845  27.423  0.00  0.00    -0.297 N 
ATOM      4  H   ARG A   5      25.859  -6.965  27.078  0.00  0.00    +0.150 HD
ENDROOT
BRANCH   3   5
ATOM      5  CA  ARG A   5      27.452  -5.523  27.323  0.00  0.00    +0.149 C 
BRANCH   5   6
ATOM      6  C   ARG A   5      28.798  -5.481  26.600  0.00  0.00    +0.241 C 
ATOM      7  O   ARG A   5      29.803  -5.040  27.165  0.00  0.00    -0.273 OA
ATOM      8  N   VAL A   6      28.824  -5.936  25.351  0.00  0.00    -0.297 N 
ATOM      9  H   VAL A   6      27.957  -6.317  24.921  0.00  0.00    +0.150 HD
BRANCH   8  10
ATOM     10  CA  VAL A   6      30.062  -5.903  24.580  0.00  0.00    +0.149 C 
BRANCH  10  11
ATOM     11  C   VAL A   6      29.966  -4.832  23.503  0.00  0.00    +0.241 C 
ATOM     12  N   GLY A   7      30.656  -3.724  23.736  0.00  0.00    -0.295 N 
ATOM     13  H   GLY A   7      31.206  -3.636  24.614  0.00  0.00    +0.150 HD
ATOM     14  O   VAL A   6      29.275  -4.996  22.494  0.00  0.00    -0.273 OA
BRANCH  12  15
ATOM     15  CA  GLY A   7      30.653  -2.635  22.782  0.00  0.00    +0.176 C 
BRANCH  15  16
ATOM     16  C   GLY A   7      32.073  -2.335  22.366  0.00  0.00    +0.243 C 
ATOM     17  O   GLY A   7      33.019  -2.846  22.962  0.00  0.00    -0.273 OA
ATOM     18  N   ALA A   8      32.236  -1.499  21.352  0.00  0.00    -0.298 N 
ATOM     19  H   ALA A   8      31.412  -1.069  20.886  0.00  0.00    +0.150 HD
BRANCH  18  20
ATOM     20  CA  ALA A   8      33.579  -1.191  20.899  0.00  0.00    +0.137 C 
ATOM     21  CB  ALA A   8      34.090  -2.313  20.014  0.00  0.00    +0.030 C 
BRANCH  20  22
ATOM     22  C   ALA A   8      33.680   0.116  20.159  0.00  0.00    +0.227 C 
ATOM     23  O   ALA A   8      32.768   0.521  19.443  0.00  0.00    -0.286 OA
ENDBRANCH  20  22
ENDBRANCH  18  20
ENDBRANCH  15  16
ENDBRANCH  12  15
ENDBRANCH  10  11
BRANCH  10  24
ATOM     24  CB  VAL A   6      30.362  -7.258  23.906  0.00  0.00    +0.027 C 
ATOM     25  CG2 VAL A   6      30.465  -8.347  24.956  0.00  0.00    +0.002 C 
ATOM     26  CG1 VAL A   6      31.667  -7.163  23.129  0.00  0.00    +0.002 C 
ENDBRANCH  10  24
ENDBRANCH   8  10
ENDBRANCH   5   6
BRANCH   5  27
ATOM     27  CB  ARG A   5      27.612  -4.914  28.728  0.00  0.00    +0.033 C 
BRANCH  27  28
ATOM     28  CG  ARG A   5      26.364  -5.017  29.610  0.00  0.00    +0.045 C 
BRANCH  28  29
ATOM     29  CD  ARG A   5      25.111  -4.556  28.870  0.00  0.00    +0.174 C 
BRANCH  29  30
ATOM     30  NE  ARG A   5      25.213  -3.172  28.408  0.00  0.00    -0.265 N 
ATOM     31  HE  ARG A   5      25.718  -2.494  29.014  0.00  0.00    +0.259 HD
ATOM     32  CZ  ARG A   5      24.702  -2.722  27.263  0.00  0.00    +0.342 C 
ATOM     33  NH2 ARG A   5      24.844  -1.447  26.923  0.00  0.00    -0.292 N 
ATOM     34 HH21 ARG A   5      25.356  -0.795  27.551  0.00  0.00    +0.255 HD
ATOM     35 HH22 ARG A   5      24.444  -1.100  26.028  0.00  0.00    +0.255 HD
ATOM     36  NH1 ARG A   5      24.052  -3.546  26.450  0.00  0.00    -0.292 N 
ATOM     37 HH11 ARG A   5      23.940  -4.548  26.706  0.00  0.00    +0.255 HD
ATOM     38 HH12 ARG A   5      23.655  -3.190  25.557  0.00  0.00    +0.255 HD
ENDBRANCH  29  30
ENDBRANCH  28  29
ENDBRANCH  27  28
ENDBRANCH   5  27
ENDBRANCH   3   5
BRANCH   1  39
ATOM     39  CA  PHE A   4      26.655  -9.194  28.005  0.00  0.00    +0.153 C 
BRANCH  39  42
ATOM     40  C   GLY A   3      24.397  -8.603  28.692  0.00  0.00    +0.243 C 
ATOM     41  O   GLY A   3      24.769  -8.340  29.832  0.00  0.00    -0.273 OA
ATOM     42  N   PHE A   4      25.230  -9.008  27.737  0.00  0.00    -0.297 N 
ATOM     43  H   PHE A   4      24.861  -9.196  26.783  0.00  0.00    +0.150 HD
BRANCH  40  44
ATOM     44  CA  GLY A   3      22.931  -8.462  28.318  0.00  0.00    +0.176 C 
BRANCH  44  46
ATOM     45  C   PRO A   2      23.082  -7.239  26.249  0.00  0.00    +0.241 C 
ATOM     46  N   GLY A   3      22.676  -8.327  26.891  0.00  0.00    -0.295 N 
ATOM     47  H   GLY A   3      22.177  -9.081  26.377  0.00  0.00    +0.150 HD
ATOM     48  O   PRO A   2      23.690  -6.332  26.807  0.00  0.00    -0.273 OA
BRANCH  45  52
ATOM     49  C   LEU A   1      23.860  -9.188  24.062  0.00  0.00    +0.241 C 
ATOM     50  O   LEU A   1      24.868  -8.839  24.677  0.00  0.00    -0.273 OA
ATOM     51  N   PRO A   2      22.747  -8.435  24.050  0.00  0.00    -0.272 N 
ATOM     52  CA  PRO A   2      22.764  -7.152  24.761  0.00  0.00    +0.152 C 
ATOM     53  CB  PRO A   2      21.364  -6.592  24.505  0.00  0.00    +0.031 C 
ATOM     54  CG  PRO A   2      20.523  -7.839  24.382  0.00  0.00    +0.024 C 
ATOM     55  CD  PRO A   2      21.397  -8.728  23.530  0.00  0.00    +0.094 C 
BRANCH  49  56
ATOM     56  CA  LEU A   1      23.837 -10.525  23.312  0.00  0.00    +0.145 C 
BRANCH  56  57
ATOM     57  N   LEU A   1      23.259 -10.443  21.972  0.00  0.00    -0.238 NA
ATOM     58  H   LEU A   1      23.742  -9.880  21.243  0.00  0.00    +0.142 HD
ENDBRANCH  56  57
BRANCH  56  59
ATOM     59  CB  LEU A   1      25.266 -11.072  23.209  0.00  0.00    +0.026 C 
BRANCH  59  60
ATOM     60  CG  LEU A   1      25.432 -12.359  22.387  0.00  0.00    +0.002 C 
ATOM     61  CD2 LEU A   1      24.650 -13.487  23.038  0.00  0.00    +0.000 C 
ATOM     62  CD1 LEU A   1      26.914 -12.721  22.286  0.00  0.00    +0.000 C 
ENDBRANCH  59  60
ENDBRANCH  56  59
ENDBRANCH  49  56
ENDBRANCH  45  52
ENDBRANCH  44  46
ENDBRANCH  40  44
ENDBRANCH  39  42
BRANCH  39  63
ATOM     63  CB  PHE A   4      27.236 -10.238  27.045  0.00  0.00    +0.055 C 
BRANCH  63  64
ATOM     64  CG  PHE A   4      26.678 -11.626  27.250  0.00  0.00    -0.020 A 
ATOM     65  CD2 PHE A   4      25.763 -11.884  28.267  0.00  0.00    -0.004 A 
ATOM     66  CE2 PHE A   4      25.245 -13.163  28.460  0.00  0.00    -0.000 A 
ATOM     67  CZ  PHE A   4      25.643 -14.202  27.628  0.00  0.00    -0.000 A 
ATOM     68  CE1 PHE A   4      26.556 -13.960  26.607  0.00  0.00    -0.000 A 
ATOM     69  CD1 PHE A   4      27.069 -12.675  26.423  0.00  0.00    -0.004 A 
ENDBRANCH  63  64
ENDBRANCH  39  63
ENDBRANCH   1  39
TORSDOF 24
REMARK  Name = ../refined-set-2016/1m7y/1m7y_pocket.pdb
REMARK  243 active torsions:
REMARK  status: ('A' for Active; 'I' for Inactive)
REMARK    1  A    between atoms: _1  and  _3
REMARK    2  A    between atoms: _3  and  _4
REMARK    3  A    between atoms: _3  and  _6
REMARK    4  A    between atoms: _6  and  _7
REMARK    5  A    between atoms: _12  and  _13
REMARK    6  A    between atoms: _15  and  _17
REMARK    7  A    between atoms: _17  and  _18
REMARK    8  A    between atoms: _17  and  _20
REMARK    9  A    between atoms: _20  and  _21
REMARK   10  A    between atoms: _27  and  _29
REMARK   11  A    between atoms: _29  and  _30
REMARK   12  A    between atoms: _29  and  _32
REMARK   13  A    between atoms: _32  and  _33
REMARK   14  A    between atoms: _43  and  _45
REMARK   15  A    between atoms: _45  and  _46
REMARK   16  A    between atoms: _45  and  _48
REMARK   17  A    between atoms: _48  and  _49
REMARK   18  A    between atoms: _49  and  _50
REMARK   19  A    between atoms: _55  and  _57
REMARK   20  A    between atoms: _57  and  _58
REMARK   21  A    between atoms: _60  and  _62
REMARK   22  A    between atoms: _62  and  _63
REMARK   23  A    between atoms: _62  and  _65
REMARK   24  A    between atoms: _65  and  _66
REMARK   25  A    between atoms: _69  and  _71
REMARK   26  A    between atoms: _71  and  _72
REMARK   27  A    between atoms: _75  and  _77
REMARK   28  A    between atoms: _77  and  _78
REMARK   29  A    between atoms: _77  and  _80
REMARK   30  A    between atoms: _80  and  _81
REMARK   31  A    between atoms: _81  and  _82
REMARK   32  A    between atoms: _85  and  _87
REMARK   33  A    between atoms: _87  and  _88
REMARK   34  A    between atoms: _87  and  _90
REMARK   35  A    between atoms: _90  and  _91
REMARK   36  A    between atoms: _96  and  _98
REMARK   37  A    between atoms: _98  and  _99
REMARK   38  A    between atoms: _98  and  _101
REMARK   39  A    between atoms: _101  and  _102
REMARK   40  A    between atoms: _105  and  _107
REMARK   41  A    between atoms: _107  and  _108
REMARK   42  A    between atoms: _111  and  _113
REMARK   43  A    between atoms: _113  and  _114
REMARK   44  A    between atoms: _116  and  _118
REMARK   45  A    between atoms: _118  and  _119
REMARK   46  A    between atoms: _122  and  _124
REMARK   47  A    between atoms: _124  and  _125
REMARK   48  A    between atoms: _124  and  _127
REMARK   49  A    between atoms: _127  and  _128
REMARK   50  A    between atoms: _131  and  _133
REMARK   51  A    between atoms: _133  and  _134
REMARK   52  A    between atoms: _133  and  _136
REMARK   53  A    between atoms: _136  and  _137
REMARK   54  A    between atoms: _139  and  _141
REMARK   55  A    between atoms: _141  and  _142
REMARK   56  A    between atoms: _145  and  _147
REMARK   57  A    between atoms: _147  and  _148
REMARK   58  A    between atoms: _147  and  _150
REMARK   59  A    between atoms: _150  and  _151
REMARK   60  A    between atoms: _156  and  _158
REMARK   61  A    between atoms: _158  and  _159
REMARK   62  A    between atoms: _158  and  _161
REMARK   63  A    between atoms: _161  and  _162
REMARK   64  A    between atoms: _162  and  _163
REMARK   65  A    between atoms: _166  and  _168
REMARK   66  A    between atoms: _168  and  _169
REMARK   67  A    between atoms: _168  and  _171
REMARK   68  A    between atoms: _171  and  _172
REMARK   69  A    between atoms: _177  and  _178
REMARK   70  A    between atoms: _180  and  _182
REMARK   71  A    between atoms: _182  and  _183
REMARK   72  A    between atoms: _182  and  _185
REMARK   73  A    between atoms: _185  and  _186
REMARK   74  A    between atoms: _191  and  _192
REMARK   75  A    between atoms: _195  and  _196
REMARK   76  A    between atoms: _201  and  _203
REMARK   77  A    between atoms: _203  and  _204
REMARK   78  A    between atoms: _206  and  _208
REMARK   79  A    between atoms: _208  and  _209
REMARK   80  A    between atoms: _208  and  _211
REMARK   81  A    between atoms: _211  and  _212
REMARK   82  A    between atoms: _218  and  _220
REMARK   83  A    between atoms: _220  and  _221
REMARK   84  A    between atoms: _220  and  _223
REMARK   85  A    between atoms: _223  and  _224
REMARK   86  A    between atoms: _224  and  _225
REMARK   87  A    between atoms: _225  and  _226
REMARK   88  A    between atoms: _235  and  _237
REMARK   89  A    between atoms: _237  and  _238
REMARK   90  A    between atoms: _237  and  _240
REMARK   91  A    between atoms: _240  and  _241
REMARK   92  A    between atoms: _244  and  _246
REMARK   93  A    between atoms: _246  and  _247
REMARK   94  A    between atoms: _246  and  _249
REMARK   95  A    between atoms: _249  and  _250
REMARK   96  A    between atoms: _253  and  _255
REMARK   97  A    between atoms: _255  and  _256
REMARK   98  A    between atoms: _255  and  _258
REMARK   99  A    between atoms: _261  and  _263
REMARK  100  A    between atoms: _263  and  _264
REMARK  101  A    between atoms: _263  and  _266
REMARK  102  A    between atoms: _266  and  _267
REMARK  103  A    between atoms: _270  and  _272
REMARK  104  A    between atoms: _272  and  _273
REMARK  105  A    between atoms: _272  and  _275
REMARK  106  A    between atoms: _275  and  _276
REMARK  107  A    between atoms: _282  and  _283
REMARK  108  A    between atoms: _288  and  _290
REMARK  109  A    between atoms: _290  and  _291
REMARK  110  A    between atoms: _290  and  _293
REMARK  111  A    between atoms: _293  and  _294
REMARK  112  A    between atoms: _296  and  _298
REMARK  113  A    between atoms: _298  and  _299
REMARK  114  A    between atoms: _298  and  _301
REMARK  115  A    between atoms: _301  and  _302
REMARK  116  A    between atoms: _308  and  _309
REMARK  117  A    between atoms: _314  and  _316
REMARK  118  A    between atoms: _316  and  _317
REMARK  119  A    between atoms: _316  and  _319
REMARK  120  A    between atoms: _319  and  _320
REMARK  121  A    between atoms: _323  and  _325
REMARK  122  A    between atoms: _325  and  _326
REMARK  123  A    between atoms: _325  and  _328
REMARK  124  A    between atoms: _328  and  _329
REMARK  125  A    between atoms: _329  and  _330
REMARK  126  A    between atoms: _333  and  _335
REMARK  127  A    between atoms: _335  and  _336
REMARK  128  A    between atoms: _335  and  _338
REMARK  129  A    between atoms: _338  and  _339
REMARK  130  A    between atoms: _342  and  _344
REMARK  131  A    between atoms: _344  and  _345
REMARK  132  A    between atoms: _344  and  _347
REMARK  133  A    between atoms: _347  and  _348
REMARK  134  A    between atoms: _353  and  _354
REMARK  135  A    between atoms: _356  and  _358
REMARK  136  A    between atoms: _358  and  _359
REMARK  137  A    between atoms: _358  and  _361
REMARK  138  A    between atoms: _364  and  _366
REMARK  139  A    between atoms: _366  and  _367
REMARK  140  A    between atoms: _366  and  _369
REMARK  141  A    between atoms: _369  and  _370
REMARK  142  A    between atoms: _375  and  _376
REMARK  143  A    between atoms: _378  and  _380
REMARK  144  A    between atoms: _380  and  _381
REMARK  145  A    between atoms: _380  and  _383
REMARK  146  A    between atoms: _383  and  _384
REMARK  147  A    between atoms: _386  and  _388
REMARK  148  A    between atoms: _388  and  _389
REMARK  149  A    between atoms: _388  and  _391
REMARK  150  A    between atoms: _391  and  _392
REMARK  151  A    between atoms: _395  and  _397
REMARK  152  A    between atoms: _397  and  _398
REMARK  153  A    between atoms: _397  and  _400
REMARK  154  A    between atoms: _400  and  _401
REMARK  155  A    between atoms: _403  and  _405
REMARK  156  A    between atoms: _405  and  _406
REMARK  157  A    between atoms: _405  and  _408
REMARK  158  A    between atoms: _408  and  _409
REMARK  159  A    between atoms: _409  and  _410
REMARK  160  A    between atoms: _410  and  _411
REMARK  161  A    between atoms: _411  and  _412
REMARK  162  A    between atoms: _416  and  _418
REMARK  163  A    between atoms: _418  and  _419
REMARK  164  A    between atoms: _418  and  _421
REMARK  165  A    between atoms: _421  and  _422
REMARK  166  A    between atoms: _426  and  _427
REMARK  167  A    between atoms: _432  and  _434
REMARK  168  A    between atoms: _434  and  _435
REMARK  169  A    between atoms: _437  and  _439
REMARK  170  A    between atoms: _439  and  _440
REMARK  171  A    between atoms: _439  and  _442
REMARK  172  A    between atoms: _442  and  _443
REMARK  173  A    between atoms: _449  and  _451
REMARK  174  A    between atoms: _451  and  _452
REMARK  175  A    between atoms: _451  and  _454
REMARK  176  A    between atoms: _454  and  _455
REMARK  177  A    between atoms: _455  and  _456
REMARK  178  A    between atoms: _456  and  _457
REMARK  179  A    between atoms: _466  and  _468
REMARK  180  A    between atoms: _468  and  _469
REMARK  181  A    between atoms: _468  and  _471
REMARK  182  A    between atoms: _474  and  _476
REMARK  183  A    between atoms: _476  and  _477
REMARK  184  A    between atoms: _479  and  _481
REMARK  185  A    between atoms: _481  and  _482
REMARK  186  A    between atoms: _485  and  _487
REMARK  187  A    between atoms: _487  and  _488
REMARK  188  A    between atoms: _487  and  _490
REMARK  189  A    between atoms: _490  and  _491
REMARK  190  A    between atoms: _494  and  _496
REMARK  191  A    between atoms: _496  and  _497
REMARK  192  A    between atoms: _496  and  _499
REMARK  193  A    between atoms: _499  and  _500
REMARK  194  A    between atoms: _506  and  _508
REMARK  195  A    between atoms: _508  and  _509
REMARK  196  A    between atoms: _508  and  _511
REMARK  197  A    between atoms: _511  and  _512
REMARK  198  A    between atoms: _514  and  _516
REMARK  199  A    between atoms: _516  and  _517
REMARK  200  A    between atoms: _516  and  _519
REMARK  201  A    between atoms: _521  and  _523
REMARK  202  A    between atoms: _523  and  _524
REMARK  203  A    between atoms: _523  and  _526
REMARK  204  A    between atoms: _526  and  _527
REMARK  205  A    between atoms: _527  and  _528
REMARK  206  A    between atoms: _528  and  _529
REMARK  207  A    between atoms: _538  and  _540
REMARK  208  A    between atoms: _540  and  _541
REMARK  209  A    between atoms: _540  and  _543
REMARK  210  A    between atoms: _545  and  _547
REMARK  211  A    between atoms: _547  and  _548
REMARK  212  A    between atoms: _547  and  _550
REMARK  213  A    between atoms: _550  and  _551
REMARK  214  A    between atoms: _556  and  _558
REMARK  215  A    between atoms: _558  and  _559
REMARK  216  A    between atoms: _558  and  _561
REMARK  217  A    between atoms: _561  and  _562
REMARK  218  A    between atoms: _565  and  _567
REMARK  219  A    between atoms: _567  and  _568
REMARK  220  A    between atoms: _567  and  _570
REMARK  221  A    between atoms: _570  and  _571
REMARK  222  A    between atoms: _571  and  _572
REMARK  223  A    between atoms: _577  and  _579
REMARK  224  A    between atoms: _579  and  _580
REMARK  225  A    between atoms: _579  and  _582
REMARK  226  A    between atoms: _582  and  _583
REMARK  227  A    between atoms: _586  and  _588
REMARK  228  A    between atoms: _588  and  _589
REMARK  229  A    between atoms: _588  and  _591
REMARK  230  A    between atoms: _591  and  _592
REMARK  231  A    between atoms: _597  and  _598
REMARK  232  A    between atoms: _600  and  _602
REMARK  233  A    between atoms: _602  and  _603
REMARK  234  A    between atoms: _602  and  _605
REMARK  235  A    between atoms: _605  and  _606
REMARK  236  A    between atoms: _608  and  _610
REMARK  237  A    between atoms: _610  and  _611
REMARK  238  A    between atoms: _610  and  _613
REMARK  239  A    between atoms: _613  and  _614
REMARK  240  A    between atoms: _620  and  _622
REMARK  241  A    between atoms: _622  and  _623
REMARK  242  A    between atoms: _622  and  _625
REMARK  243  A    between atoms: _625  and  _626
REMARK                            x       y       z     vdW  Elec       q    Type
REMARK                         _______ _______ _______ _____ _____    ______ ____
ROOT
ATOM      1  C   LEU A   1      14.329  -4.939  13.230  0.00  0.00    +0.238 C 
ATOM      2  O   LEU A   1      13.502  -5.284  14.077  0.00  0.00    -0.274 OA
ATOM      3  N   PHE A   2      14.078  -4.034  12.292  0.00  0.00    -0.298 N 
ATOM      4  H   PHE A   2      14.794  -3.848  11.561  0.00  0.00    +0.150 HD
ENDROOT
BRANCH   1   5
ATOM      5  CA  LEU A   1      15.708  -5.571  13.189  0.00  0.00    +0.145 C 
BRANCH   5   6
ATOM      6  N   LEU A   1      16.631  -4.659  12.520  0.00  0.00    -0.238 NA
ATOM      7  H   LEU A   1      16.745  -3.698  12.901  0.00  0.00    +0.142 HD
ENDBRANCH   5   6
BRANCH   5   8
ATOM      8  CB  LEU A   1      16.181  -5.806  14.629  0.00  0.00    +0.026 C 
BRANCH   8   9
ATOM      9  CG  LEU A   1      17.644  -6.215  14.810  0.00  0.00    +0.002 C 
ATOM     10  CD2 LEU A   1      17.969  -6.259  16.300  0.00  0.00    +0.000 C 
ATOM     11  CD1 LEU A   1      17.886  -7.570  14.168  0.00  0.00    +0.000 C 
ENDBRANCH   8   9
ENDBRANCH   5   8
ENDBRANCH   1   5
BRANCH   3  12
ATOM     12  CA  PHE A   2      12.824  -3.296  12.264  0.00  0.00    +0.141 C 
BRANCH  12  13
ATOM     13  C   PHE A   2      12.528  -2.747  10.877  0.00  0.00    +0.227 C 
ATOM     14  O   PHE A   2      13.396  -2.714  10.008  0.00  0.00    -0.286 OA
ENDBRANCH  12  13
BRANCH  12  15
ATOM     15  CB  PHE A   2      12.949  -2.132  13.248  0.00  0.00    +0.054 C 
BRANCH  15  16
ATOM     16  CG  PHE A   2      14.345  -1.569  13.318  0.00  0.00    -0.020 A 
ATOM     17  CD2 PHE A   2      15.154  -1.818  14.427  0.00  0.00    -0.004 A 
ATOM     18  CE2 PHE A   2      16.482  -1.409  14.451  0.00  0.00    -0.000 A 
ATOM     19  CZ  PHE A   2      17.024  -0.733  13.364  0.00  0.00    -0.000 A 
ATOM     20  CE1 PHE A   2      16.226  -0.467  12.250  0.00  0.00    -0.000 A 
ATOM     21  CD1 PHE A   2      14.891  -0.884  12.236  0.00  0.00    -0.004 A 
ENDBRANCH  15  16
ENDBRANCH  12  15
ENDBRANCH   3  12
TORSDOF 8
REMARK  Name = ../refined-set-2016/1m7y/1m7y_pocket.pdb
REMARK  243 active torsions:
REMARK  status: ('A' for Active; 'I' for Inactive)
REMARK    1  A    between atoms: _1  and  _3
REMARK    2  A    between atoms: _3  and  _4
REMARK    3  A    between atoms: _3  and  _6
REMARK    4  A    between atoms: _6  and  _7
REMARK    5  A    between atoms: _12  and  _13
REMARK    6  A    between atoms: _15  and  _17
REMARK    7  A    between atoms: _17  and  _18
REMARK    8  A    between atoms: _17  and  _20
REMARK    9  A    between atoms: _20  and  _21
REMARK   10  A    between atoms: _27  and  _29
REMARK   11  A    between atoms: _29  and  _30
REMARK   12  A    between atoms: _29  and  _32
REMARK   13  A    between atoms: _32  and  _33
REMARK   14  A    between atoms: _43  and  _45
REMARK   15  A    between atoms: _45  and  _46
REMARK   16  A    between atoms: _45  and  _48
REMARK   17  A    between atoms: _48  and  _49
REMARK   18  A    between atoms: _49  and  _50
REMARK   19  A    between atoms: _55  and  _57
REMARK   20  A    between atoms: _57  and  _58
REMARK   21  A    between atoms: _60  and  _62
REMARK   22  A    between atoms: _62  and  _63
REMARK   23  A    between atoms: _62  and  _65
REMARK   24  A    between atoms: _65  and  _66
REMARK   25  A    between atoms: _69  and  _71
REMARK   26  A    between atoms: _71  and  _72
REMARK   27  A    between atoms: _75  and  _77
REMARK   28  A    between atoms: _77  and  _78
REMARK   29  A    between atoms: _77  and  _80
REMARK   30  A    between atoms: _80  and  _81
REMARK   31  A    between atoms: _81  and  _82
REMARK   32  A    between atoms: _85  and  _87
REMARK   33  A    between atoms: _87  and  _88
REMARK   34  A    between atoms: _87  and  _90
REMARK   35  A    between atoms: _90  and  _91
REMARK   36  A    between atoms: _96  and  _98
REMARK   37  A    between atoms: _98  and  _99
REMARK   38  A    between atoms: _98  and  _101
REMARK   39  A    between atoms: _101  and  _102
REMARK   40  A    between atoms: _105  and  _107
REMARK   41  A    between atoms: _107  and  _108
REMARK   42  A    between atoms: _111  and  _113
REMARK   43  A    between atoms: _113  and  _114
REMARK   44  A    between atoms: _116  and  _118
REMARK   45  A    between atoms: _118  and  _119
REMARK   46  A    between atoms: _122  and  _124
REMARK   47  A    between atoms: _124  and  _125
REMARK   48  A    between atoms: _124  and  _127
REMARK   49  A    between atoms: _127  and  _128
REMARK   50  A    between atoms: _131  and  _133
REMARK   51  A    between atoms: _133  and  _134
REMARK   52  A    between atoms: _133  and  _136
REMARK   53  A    between atoms: _136  and  _137
REMARK   54  A    between atoms: _139  and  _141
REMARK   55  A    between atoms: _141  and  _142
REMARK   56  A    between atoms: _145  and  _147
REMARK   57  A    between atoms: _147  and  _148
REMARK   58  A    between atoms: _147  and  _150
REMARK   59  A    between atoms: _150  and  _151
REMARK   60  A    between atoms: _156  and  _158
REMARK   61  A    between atoms: _158  and  _159
REMARK   62  A    between atoms: _158  and  _161
REMARK   63  A    between atoms: _161  and  _162
REMARK   64  A    between atoms: _162  and  _163
REMARK   65  A    between atoms: _166  and  _168
REMARK   66  A    between atoms: _168  and  _169
REMARK   67  A    between atoms: _168  and  _171
REMARK   68  A    between atoms: _171  and  _172
REMARK   69  A    between atoms: _177  and  _178
REMARK   70  A    between atoms: _180  and  _182
REMARK   71  A    between atoms: _182  and  _183
REMARK   72  A    between atoms: _182  and  _185
REMARK   73  A    between atoms: _185  and  _186
REMARK   74  A    between atoms: _191  and  _192
REMARK   75  A    between atoms: _195  and  _196
REMARK   76  A    between atoms: _201  and  _203
REMARK   77  A    between atoms: _203  and  _204
REMARK   78  A    between atoms: _206  and  _208
REMARK   79  A    between atoms: _208  and  _209
REMARK   80  A    between atoms: _208  and  _211
REMARK   81  A    between atoms: _211  and  _212
REMARK   82  A    between atoms: _218  and  _220
REMARK   83  A    between atoms: _220  and  _221
REMARK   84  A    between atoms: _220  and  _223
REMARK   85  A    between atoms: _223  and  _224
REMARK   86  A    between atoms: _224  and  _225
REMARK   87  A    between atoms: _225  and  _226
REMARK   88  A    between atoms: _235  and  _237
REMARK   89  A    between atoms: _237  and  _238
REMARK   90  A    between atoms: _237  and  _240
REMARK   91  A    between atoms: _240  and  _241
REMARK   92  A    between atoms: _244  and  _246
REMARK   93  A    between atoms: _246  and  _247
REMARK   94  A    between atoms: _246  and  _249
REMARK   95  A    between atoms: _249  and  _250
REMARK   96  A    between atoms: _253  and  _255
REMARK   97  A    between atoms: _255  and  _256
REMARK   98  A    between atoms: _255  and  _258
REMARK   99  A    between atoms: _261  and  _263
REMARK  100  A    between atoms: _263  and  _264
REMARK  101  A    between atoms: _263  and  _266
REMARK  102  A    between atoms: _266  and  _267
REMARK  103  A    between atoms: _270  and  _272
REMARK  104  A    between atoms: _272  and  _273
REMARK  105  A    between atoms: _272  and  _275
REMARK  106  A    between atoms: _275  and  _276
REMARK  107  A    between atoms: _282  and  _283
REMARK  108  A    between atoms: _288  and  _290
REMARK  109  A    between atoms: _290  and  _291
REMARK  110  A    between atoms: _290  and  _293
REMARK  111  A    between atoms: _293  and  _294
REMARK  112  A    between atoms: _296  and  _298
REMARK  113  A    between atoms: _298  and  _299
REMARK  114  A    between atoms: _298  and  _301
REMARK  115  A    between atoms: _301  and  _302
REMARK  116  A    between atoms: _308  and  _309
REMARK  117  A    between atoms: _314  and  _316
REMARK  118  A    between atoms: _316  and  _317
REMARK  119  A    between atoms: _316  and  _319
REMARK  120  A    between atoms: _319  and  _320
REMARK  121  A    between atoms: _323  and  _325
REMARK  122  A    between atoms: _325  and  _326
REMARK  123  A    between atoms: _325  and  _328
REMARK  124  A    between atoms: _328  and  _329
REMARK  125  A    between atoms: _329  and  _330
REMARK  126  A    between atoms: _333  and  _335
REMARK  127  A    between atoms: _335  and  _336
REMARK  128  A    between atoms: _335  and  _338
REMARK  129  A    between atoms: _338  and  _339
REMARK  130  A    between atoms: _342  and  _344
REMARK  131  A    between atoms: _344  and  _345
REMARK  132  A    between atoms: _344  and  _347
REMARK  133  A    between atoms: _347  and  _348
REMARK  134  A    between atoms: _353  and  _354
REMARK  135  A    between atoms: _356  and  _358
REMARK  136  A    between atoms: _358  and  _359
REMARK  137  A    between atoms: _358  and  _361
REMARK  138  A    between atoms: _364  and  _366
REMARK  139  A    between atoms: _366  and  _367
REMARK  140  A    between atoms: _366  and  _369
REMARK  141  A    between atoms: _369  and  _370
REMARK  142  A    between atoms: _375  and  _376
REMARK  143  A    between atoms: _378  and  _380
REMARK  144  A    between atoms: _380  and  _381
REMARK  145  A    between atoms: _380  and  _383
REMARK  146  A    between atoms: _383  and  _384
REMARK  147  A    between atoms: _386  and  _388
REMARK  148  A    between atoms: _388  and  _389
REMARK  149  A    between atoms: _388  and  _391
REMARK  150  A    between atoms: _391  and  _392
REMARK  151  A    between atoms: _395  and  _397
REMARK  152  A    between atoms: _397  and  _398
REMARK  153  A    between atoms: _397  and  _400
REMARK  154  A    between atoms: _400  and  _401
REMARK  155  A    between atoms: _403  and  _405
REMARK  156  A    between atoms: _405  and  _406
REMARK  157  A    between atoms: _405  and  _408
REMARK  158  A    between atoms: _408  and  _409
REMARK  159  A    between atoms: _409  and  _410
REMARK  160  A    between atoms: _410  and  _411
REMARK  161  A    between atoms: _411  and  _412
REMARK  162  A    between atoms: _416  and  _418
REMARK  163  A    between atoms: _418  and  _419
REMARK  164  A    between atoms: _418  and  _421
REMARK  165  A    between atoms: _421  and  _422
REMARK  166  A    between atoms: _426  and  _427
REMARK  167  A    between atoms: _432  and  _434
REMARK  168  A    between atoms: _434  and  _435
REMARK  169  A    between atoms: _437  and  _439
REMARK  170  A    between atoms: _439  and  _440
REMARK  171  A    between atoms: _439  and  _442
REMARK  172  A    between atoms: _442  and  _443
REMARK  173  A    between atoms: _449  and  _451
REMARK  174  A    between atoms: _451  and  _452
REMARK  175  A    between atoms: _451  and  _454
REMARK  176  A    between atoms: _454  and  _455
REMARK  177  A    between atoms: _455  and  _456
REMARK  178  A    between atoms: _456  and  _457
REMARK  179  A    between atoms: _466  and  _468
REMARK  180  A    between atoms: _468  and  _469
REMARK  181  A    between atoms: _468  and  _471
REMARK  182  A    between atoms: _474  and  _476
REMARK  183  A    between atoms: _476  and  _477
REMARK  184  A    between atoms: _479  and  _481
REMARK  185  A    between atoms: _481  and  _482
REMARK  186  A    between atoms: _485  and  _487
REMARK  187  A    between atoms: _487  and  _488
REMARK  188  A    between atoms: _487  and  _490
REMARK  189  A    between atoms: _490  and  _491
REMARK  190  A    between atoms: _494  and  _496
REMARK  191  A    between atoms: _496  and  _497
REMARK  192  A    between atoms: _496  and  _499
REMARK  193  A    between atoms: _499  and  _500
REMARK  194  A    between atoms: _506  and  _508
REMARK  195  A    between atoms: _508  and  _509
REMARK  196  A    between atoms: _508  and  _511
REMARK  197  A    between atoms: _511  and  _512
REMARK  198  A    between atoms: _514  and  _516
REMARK  199  A    between atoms: _516  and  _517
REMARK  200  A    between atoms: _516  and  _519
REMARK  201  A    between atoms: _521  and  _523
REMARK  202  A    between atoms: _523  and  _524
REMARK  203  A    between atoms: _523  and  _526
REMARK  204  A    between atoms: _526  and  _527
REMARK  205  A    between atoms: _527  and  _528
REMARK  206  A    between atoms: _528  and  _529
REMARK  207  A    between atoms: _538  and  _540
REMARK  208  A    between atoms: _540  and  _541
REMARK  209  A    between atoms: _540  and  _543
REMARK  210  A    between atoms: _545  and  _547
REMARK  211  A    between atoms: _547  and  _548
REMARK  212  A    between atoms: _547  and  _550
REMARK  213  A    between atoms: _550  and  _551
REMARK  214  A    between atoms: _556  and  _558
REMARK  215  A    between atoms: _558  and  _559
REMARK  216  A    between atoms: _558  and  _561
REMARK  217  A    between atoms: _561  and  _562
REMARK  218  A    between atoms: _565  and  _567
REMARK  219  A    between atoms: _567  and  _568
REMARK  220  A    between atoms: _567  and  _570
REMARK  221  A    between atoms: _570  and  _571
REMARK  222  A    between atoms: _571  and  _572
REMARK  223  A    between atoms: _577  and  _579
REMARK  224  A    between atoms: _579  and  _580
REMARK  225  A    between atoms: _579  and  _582
REMARK  226  A    between atoms: _582  and  _583
REMARK  227  A    between atoms: _586  and  _588
REMARK  228  A    between atoms: _588  and  _589
REMARK  229  A    between atoms: _588  and  _591
REMARK  230  A    between atoms: _591  and  _592
REMARK  231  A    between atoms: _597  and  _598
REMARK  232  A    between atoms: _600  and  _602
REMARK  233  A    between atoms: _602  and  _603
REMARK  234  A    between atoms: _602  and  _605
REMARK  235  A    between atoms: _605  and  _606
REMARK  236  A    between atoms: _608  and  _610
REMARK  237  A    between atoms: _610  and  _611
REMARK  238  A    between atoms: _610  and  _613
REMARK  239  A    between atoms: _613  and  _614
REMARK  240  A    between atoms: _620  and  _622
REMARK  241  A    between atoms: _622  and  _623
REMARK  242  A    between atoms: _622  and  _625
REMARK  243  A    between atoms: _625  and  _626
REMARK                            x       y       z     vdW  Elec       q    Type
REMARK                         _______ _______ _______ _____ _____    ______ ____
ROOT
ATOM      1  CA  SER A   1       7.310   3.418  18.125  0.00  0.00    +0.163 C 
ENDROOT
BRANCH   1   2
ATOM      2  N   SER A   1       6.830   2.077  17.821  0.00  0.00    -0.237 NA
ATOM      3  H   SER A   1       7.286   1.517  17.073  0.00  0.00    +0.142 HD
ENDBRANCH   1   2
BRANCH   1   4
ATOM      4  C   SER A   1       6.888   4.476  17.119  0.00  0.00    +0.227 C 
ATOM      5  O   SER A   1       7.083   4.313  15.917  0.00  0.00    -0.287 OA
ENDBRANCH   1   4
BRANCH   1   6
ATOM      6  CB  SER A   1       8.835   3.409  18.234  0.00  0.00    +0.162 C 
BRANCH   6   7
ATOM      7  OG  SER A   1       9.264   2.392  19.119  0.00  0.00    -0.380 OA
ATOM      8  H   SER A   1       8.961   1.512  18.781  0.00  0.00    +0.211 HD
ENDBRANCH   6   7
ENDBRANCH   1   6
TORSDOF 4
REMARK  Name = ../refined-set-2016/1m7y/1m7y_pocket.pdb
REMARK  243 active torsions:
REMARK  status: ('A' for Active; 'I' for Inactive)
REMARK    1  A    between atoms: _1  and  _3
REMARK    2  A    between atoms: _3  and  _4
REMARK    3  A    between atoms: _3  and  _6
REMARK    4  A    between atoms: _6  and  _7
REMARK    5  A    between atoms: _12  and  _13
REMARK    6  A    between atoms: _15  and  _17
REMARK    7  A    between atoms: _17  and  _18
REMARK    8  A    between atoms: _17  and  _20
REMARK    9  A    between atoms: _20  and  _21
REMARK   10  A    between atoms: _27  and  _29
REMARK   11  A    between atoms: _29  and  _30
REMARK   12  A    between atoms: _29  and  _32
REMARK   13  A    between atoms: _32  and  _33
REMARK   14  A    between atoms: _43  and  _45
REMARK   15  A    between atoms: _45  and  _46
REMARK   16  A    between atoms: _45  and  _48
REMARK   17  A    between atoms: _48  and  _49
REMARK   18  A    between atoms: _49  and  _50
REMARK   19  A    between atoms: _55  and  _57
REMARK   20  A    between atoms: _57  and  _58
REMARK   21  A    between atoms: _60  and  _62
REMARK   22  A    between atoms: _62  and  _63
REMARK   23  A    between atoms: _62  and  _65
REMARK   24  A    between atoms: _65  and  _66
REMARK   25  A    between atoms: _69  and  _71
REMARK   26  A    between atoms: _71  and  _72
REMARK   27  A    between atoms: _75  and  _77
REMARK   28  A    between atoms: _77  and  _78
REMARK   29  A    between atoms: _77  and  _80
REMARK   30  A    between atoms: _80  and  _81
REMARK   31  A    between atoms: _81  and  _82
REMARK   32  A    between atoms: _85  and  _87
REMARK   33  A    between atoms: _87  and  _88
REMARK   34  A    between atoms: _87  and  _90
REMARK   35  A    between atoms: _90  and  _91
REMARK   36  A    between atoms: _96  and  _98
REMARK   37  A    between atoms: _98  and  _99
REMARK   38  A    between atoms: _98  and  _101
REMARK   39  A    between atoms: _101  and  _102
REMARK   40  A    between atoms: _105  and  _107
REMARK   41  A    between atoms: _107  and  _108
REMARK   42  A    between atoms: _111  and  _113
REMARK   43  A    between atoms: _113  and  _114
REMARK   44  A    between atoms: _116  and  _118
REMARK   45  A    between atoms: _118  and  _119
REMARK   46  A    between atoms: _122  and  _124
REMARK   47  A    between atoms: _124  and  _125
REMARK   48  A    between atoms: _124  and  _127
REMARK   49  A    between atoms: _127  and  _128
REMARK   50  A    between atoms: _131  and  _133
REMARK   51  A    between atoms: _133  and  _134
REMARK   52  A    between atoms: _133  and  _136
REMARK   53  A    between atoms: _136  and  _137
REMARK   54  A    between atoms: _139  and  _141
REMARK   55  A    between atoms: _141  and  _142
REMARK   56  A    between atoms: _145  and  _147
REMARK   57  A    between atoms: _147  and  _148
REMARK   58  A    between atoms: _147  and  _150
REMARK   59  A    between atoms: _150  and  _151
REMARK   60  A    between atoms: _156  and  _158
REMARK   61  A    between atoms: _158  and  _159
REMARK   62  A    between atoms: _158  and  _161
REMARK   63  A    between atoms: _161  and  _162
REMARK   64  A    between atoms: _162  and  _163
REMARK   65  A    between atoms: _166  and  _168
REMARK   66  A    between atoms: _168  and  _169
REMARK   67  A    between atoms: _168  and  _171
REMARK   68  A    between atoms: _171  and  _172
REMARK   69  A    between atoms: _177  and  _178
REMARK   70  A    between atoms: _180  and  _182
REMARK   71  A    between atoms: _182  and  _183
REMARK   72  A    between atoms: _182  and  _185
REMARK   73  A    between atoms: _185  and  _186
REMARK   74  A    between atoms: _191  and  _192
REMARK   75  A    between atoms: _195  and  _196
REMARK   76  A    between atoms: _201  and  _203
REMARK   77  A    between atoms: _203  and  _204
REMARK   78  A    between atoms: _206  and  _208
REMARK   79  A    between atoms: _208  and  _209
REMARK   80  A    between atoms: _208  and  _211
REMARK   81  A    between atoms: _211  and  _212
REMARK   82  A    between atoms: _218  and  _220
REMARK   83  A    between atoms: _220  and  _221
REMARK   84  A    between atoms: _220  and  _223
REMARK   85  A    between atoms: _223  and  _224
REMARK   86  A    between atoms: _224  and  _225
REMARK   87  A    between atoms: _225  and  _226
REMARK   88  A    between atoms: _235  and  _237
REMARK   89  A    between atoms: _237  and  _238
REMARK   90  A    between atoms: _237  and  _240
REMARK   91  A    between atoms: _240  and  _241
REMARK   92  A    between atoms: _244  and  _246
REMARK   93  A    between atoms: _246  and  _247
REMARK   94  A    between atoms: _246  and  _249
REMARK   95  A    between atoms: _249  and  _250
REMARK   96  A    between atoms: _253  and  _255
REMARK   97  A    between atoms: _255  and  _256
REMARK   98  A    between atoms: _255  and  _258
REMARK   99  A    between atoms: _261  and  _263
REMARK  100  A    between atoms: _263  and  _264
REMARK  101  A    between atoms: _263  and  _266
REMARK  102  A    between atoms: _266  and  _267
REMARK  103  A    between atoms: _270  and  _272
REMARK  104  A    between atoms: _272  and  _273
REMARK  105  A    between atoms: _272  and  _275
REMARK  106  A    between atoms: _275  and  _276
REMARK  107  A    between atoms: _282  and  _283
REMARK  108  A    between atoms: _288  and  _290
REMARK  109  A    between atoms: _290  and  _291
REMARK  110  A    between atoms: _290  and  _293
REMARK  111  A    between atoms: _293  and  _294
REMARK  112  A    between atoms: _296  and  _298
REMARK  113  A    between atoms: _298  and  _299
REMARK  114  A    between atoms: _298  and  _301
REMARK  115  A    between atoms: _301  and  _302
REMARK  116  A    between atoms: _308  and  _309
REMARK  117  A    between atoms: _314  and  _316
REMARK  118  A    between atoms: _316  and  _317
REMARK  119  A    between atoms: _316  and  _319
REMARK  120  A    between atoms: _319  and  _320
REMARK  121  A    between atoms: _323  and  _325
REMARK  122  A    between atoms: _325  and  _326
REMARK  123  A    between atoms: _325  and  _328
REMARK  124  A    between atoms: _328  and  _329
REMARK  125  A    between atoms: _329  and  _330
REMARK  126  A    between atoms: _333  and  _335
REMARK  127  A    between atoms: _335  and  _336
REMARK  128  A    between atoms: _335  and  _338
REMARK  129  A    between atoms: _338  and  _339
REMARK  130  A    between atoms: _342  and  _344
REMARK  131  A    between atoms: _344  and  _345
REMARK  132  A    between atoms: _344  and  _347
REMARK  133  A    between atoms: _347  and  _348
REMARK  134  A    between atoms: _353  and  _354
REMARK  135  A    between atoms: _356  and  _358
REMARK  136  A    between atoms: _358  and  _359
REMARK  137  A    between atoms: _358  and  _361
REMARK  138  A    between atoms: _364  and  _366
REMARK  139  A    between atoms: _366  and  _367
REMARK  140  A    between atoms: _366  and  _369
REMARK  141  A    between atoms: _369  and  _370
REMARK  142  A    between atoms: _375  and  _376
REMARK  143  A    between atoms: _378  and  _380
REMARK  144  A    between atoms: _380  and  _381
REMARK  145  A    between atoms: _380  and  _383
REMARK  146  A    between atoms: _383  and  _384
REMARK  147  A    between atoms: _386  and  _388
REMARK  148  A    between atoms: _388  and  _389
REMARK  149  A    between atoms: _388  and  _391
REMARK  150  A    between atoms: _391  and  _392
REMARK  151  A    between atoms: _395  and  _397
REMARK  152  A    between atoms: _397  and  _398
REMARK  153  A    between atoms: _397  and  _400
REMARK  154  A    between atoms: _400  and  _401
REMARK  155  A    between atoms: _403  and  _405
REMARK  156  A    between atoms: _405  and  _406
REMARK  157  A    between atoms: _405  and  _408
REMARK  158  A    between atoms: _408  and  _409
REMARK  159  A    between atoms: _409  and  _410
REMARK  160  A    between atoms: _410  and  _411
REMARK  161  A    between atoms: _411  and  _412
REMARK  162  A    between atoms: _416  and  _418
REMARK  163  A    between atoms: _418  and  _419
REMARK  164  A    between atoms: _418  and  _421
REMARK  165  A    between atoms: _421  and  _422
REMARK  166  A    between atoms: _426  and  _427
REMARK  167  A    between atoms: _432  and  _434
REMARK  168  A    between atoms: _434  and  _435
REMARK  169  A    between atoms: _437  and  _439
REMARK  170  A    between atoms: _439  and  _440
REMARK  171  A    between atoms: _439  and  _442
REMARK  172  A    between atoms: _442  and  _443
REMARK  173  A    between atoms: _449  and  _451
REMARK  174  A    between atoms: _451  and  _452
REMARK  175  A    between atoms: _451  and  _454
REMARK  176  A    between atoms: _454  and  _455
REMARK  177  A    between atoms: _455  and  _456
REMARK  178  A    between atoms: _456  and  _457
REMARK  179  A    between atoms: _466  and  _468
REMARK  180  A    between atoms: _468  and  _469
REMARK  181  A    between atoms: _468  and  _471
REMARK  182  A    between atoms: _474  and  _476
REMARK  183  A    between atoms: _476  and  _477
REMARK  184  A    between atoms: _479  and  _481
REMARK  185  A    between atoms: _481  and  _482
REMARK  186  A    between atoms: _485  and  _487
REMARK  187  A    between atoms: _487  and  _488
REMARK  188  A    between atoms: _487  and  _490
REMARK  189  A    between atoms: _490  and  _491
REMARK  190  A    between atoms: _494  and  _496
REMARK  191  A    between atoms: _496  and  _497
REMARK  192  A    between atoms: _496  and  _499
REMARK  193  A    between atoms: _499  and  _500
REMARK  194  A    between atoms: _506  and  _508
REMARK  195  A    between atoms: _508  and  _509
REMARK  196  A    between atoms: _508  and  _511
REMARK  197  A    between atoms: _511  and  _512
REMARK  198  A    between atoms: _514  and  _516
REMARK  199  A    between atoms: _516  and  _517
REMARK  200  A    between atoms: _516  and  _519
REMARK  201  A    between atoms: _521  and  _523
REMARK  202  A    between atoms: _523  and  _524
REMARK  203  A    between atoms: _523  and  _526
REMARK  204  A    between atoms: _526  and  _527
REMARK  205  A    between atoms: _527  and  _528
REMARK  206  A    between atoms: _528  and  _529
REMARK  207  A    between atoms: _538  and  _540
REMARK  208  A    between atoms: _540  and  _541
REMARK  209  A    between atoms: _540  and  _543
REMARK  210  A    between atoms: _545  and  _547
REMARK  211  A    between atoms: _547  and  _548
REMARK  212  A    between atoms: _547  and  _550
REMARK  213  A    between atoms: _550  and  _551
REMARK  214  A    between atoms: _556  and  _558
REMARK  215  A    between atoms: _558  and  _559
REMARK  216  A    between atoms: _558  and  _561
REMARK  217  A    between atoms: _561  and  _562
REMARK  218  A    between atoms: _565  and  _567
REMARK  219  A    between atoms: _567  and  _568
REMARK  220  A    between atoms: _567  and  _570
REMARK  221  A    between atoms: _570  and  _571
REMARK  222  A    between atoms: _571  and  _572
REMARK  223  A    between atoms: _577  and  _579
REMARK  224  A    between atoms: _579  and  _580
REMARK  225  A    between atoms: _579  and  _582
REMARK  226  A    between atoms: _582  and  _583
REMARK  227  A    between atoms: _586  and  _588
REMARK  228  A    between atoms: _588  and  _589
REMARK  229  A    between atoms: _588  and  _591
REMARK  230  A    between atoms: _591  and  _592
REMARK  231  A    between atoms: _597  and  _598
REMARK  232  A    between atoms: _600  and  _602
REMARK  233  A    between atoms: _602  and  _603
REMARK  234  A    between atoms: _602  and  _605
REMARK  235  A    between atoms: _605  and  _606
REMARK  236  A    between atoms: _608  and  _610
REMARK  237  A    between atoms: _610  and  _611
REMARK  238  A    between atoms: _610  and  _613
REMARK  239  A    between atoms: _613  and  _614
REMARK  240  A    between atoms: _620  and  _622
REMARK  241  A    between atoms: _622  and  _623
REMARK  242  A    between atoms: _622  and  _625
REMARK  243  A    between atoms: _625  and  _626
REMARK                            x       y       z     vdW  Elec       q    Type
REMARK                         _______ _______ _______ _____ _____    ______ ____
ROOT
ATOM      1  CA  CYS A   1      12.771   9.280  16.577  0.00  0.00    +0.145 C 
ENDROOT
BRANCH   1   2
ATOM      2  N   CYS A   1      11.499   9.372  17.291  0.00  0.00    -0.238 NA
ATOM      3  H   CYS A   1      10.612   9.311  16.751  0.00  0.00    +0.142 HD
ENDBRANCH   1   2
BRANCH   1   4
ATOM      4  C   CYS A   1      13.103  10.604  15.899  0.00  0.00    +0.225 C 
ATOM      5  O   CYS A   1      14.037  10.688  15.101  0.00  0.00    -0.287 OA
ENDBRANCH   1   4
BRANCH   1   6
ATOM      6  CB  CYS A   1      12.715   8.170  15.528  0.00  0.00    +0.094 C 
ATOM      7  SG  CYS A   1      12.417   6.536  16.205  0.00  0.00    -0.080 S 
ENDBRANCH   1   6
TORSDOF 3
REMARK  Name = ../refined-set-2016/1m7y/1m7y_pocket.pdb
REMARK  243 active torsions:
REMARK  status: ('A' for Active; 'I' for Inactive)
REMARK    1  A    between atoms: _1  and  _3
REMARK    2  A    between atoms: _3  and  _4
REMARK    3  A    between atoms: _3  and  _6
REMARK    4  A    between atoms: _6  and  _7
REMARK    5  A    between atoms: _12  and  _13
REMARK    6  A    between atoms: _15  and  _17
REMARK    7  A    between atoms: _17  and  _18
REMARK    8  A    between atoms: _17  and  _20
REMARK    9  A    between atoms: _20  and  _21
REMARK   10  A    between atoms: _27  and  _29
REMARK   11  A    between atoms: _29  and  _30
REMARK   12  A    between atoms: _29  and  _32
REMARK   13  A    between atoms: _32  and  _33
REMARK   14  A    between atoms: _43  and  _45
REMARK   15  A    between atoms: _45  and  _46
REMARK   16  A    between atoms: _45  and  _48
REMARK   17  A    between atoms: _48  and  _49
REMARK   18  A    between atoms: _49  and  _50
REMARK   19  A    between atoms: _55  and  _57
REMARK   20  A    between atoms: _57  and  _58
REMARK   21  A    between atoms: _60  and  _62
REMARK   22  A    between atoms: _62  and  _63
REMARK   23  A    between atoms: _62  and  _65
REMARK   24  A    between atoms: _65  and  _66
REMARK   25  A    between atoms: _69  and  _71
REMARK   26  A    between atoms: _71  and  _72
REMARK   27  A    between atoms: _75  and  _77
REMARK   28  A    between atoms: _77  and  _78
REMARK   29  A    between atoms: _77  and  _80
REMARK   30  A    between atoms: _80  and  _81
REMARK   31  A    between atoms: _81  and  _82
REMARK   32  A    between atoms: _85  and  _87
REMARK   33  A    between atoms: _87  and  _88
REMARK   34  A    between atoms: _87  and  _90
REMARK   35  A    between atoms: _90  and  _91
REMARK   36  A    between atoms: _96  and  _98
REMARK   37  A    between atoms: _98  and  _99
REMARK   38  A    between atoms: _98  and  _101
REMARK   39  A    between atoms: _101  and  _102
REMARK   40  A    between atoms: _105  and  _107
REMARK   41  A    between atoms: _107  and  _108
REMARK   42  A    between atoms: _111  and  _113
REMARK   43  A    between atoms: _113  and  _114
REMARK   44  A    between atoms: _116  and  _118
REMARK   45  A    between atoms: _118  and  _119
REMARK   46  A    between atoms: _122  and  _124
REMARK   47  A    between atoms: _124  and  _125
REMARK   48  A    between atoms: _124  and  _127
REMARK   49  A    between atoms: _127  and  _128
REMARK   50  A    between atoms: _131  and  _133
REMARK   51  A    between atoms: _133  and  _134
REMARK   52  A    between atoms: _133  and  _136
REMARK   53  A    between atoms: _136  and  _137
REMARK   54  A    between atoms: _139  and  _141
REMARK   55  A    between atoms: _141  and  _142
REMARK   56  A    between atoms: _145  and  _147
REMARK   57  A    between atoms: _147  and  _148
REMARK   58  A    between atoms: _147  and  _150
REMARK   59  A    between atoms: _150  and  _151
REMARK   60  A    between atoms: _156  and  _158
REMARK   61  A    between atoms: _158  and  _159
REMARK   62  A    between atoms: _158  and  _161
REMARK   63  A    between atoms: _161  and  _162
REMARK   64  A    between atoms: _162  and  _163
REMARK   65  A    between atoms: _166  and  _168
REMARK   66  A    between atoms: _168  and  _169
REMARK   67  A    between atoms: _168  and  _171
REMARK   68  A    between atoms: _171  and  _172
REMARK   69  A    between atoms: _177  and  _178
REMARK   70  A    between atoms: _180  and  _182
REMARK   71  A    between atoms: _182  and  _183
REMARK   72  A    between atoms: _182  and  _185
REMARK   73  A    between atoms: _185  and  _186
REMARK   74  A    between atoms: _191  and  _192
REMARK   75  A    between atoms: _195  and  _196
REMARK   76  A    between atoms: _201  and  _203
REMARK   77  A    between atoms: _203  and  _204
REMARK   78  A    between atoms: _206  and  _208
REMARK   79  A    between atoms: _208  and  _209
REMARK   80  A    between atoms: _208  and  _211
REMARK   81  A    between atoms: _211  and  _212
REMARK   82  A    between atoms: _218  and  _220
REMARK   83  A    between atoms: _220  and  _221
REMARK   84  A    between atoms: _220  and  _223
REMARK   85  A    between atoms: _223  and  _224
REMARK   86  A    between atoms: _224  and  _225
REMARK   87  A    between atoms: _225  and  _226
REMARK   88  A    between atoms: _235  and  _237
REMARK   89  A    between atoms: _237  and  _238
REMARK   90  A    between atoms: _237  and  _240
REMARK   91  A    between atoms: _240  and  _241
REMARK   92  A    between atoms: _244  and  _246
REMARK   93  A    between atoms: _246  and  _247
REMARK   94  A    between atoms: _246  and  _249
REMARK   95  A    between atoms: _249  and  _250
REMARK   96  A    between atoms: _253  and  _255
REMARK   97  A    between atoms: _255  and  _256
REMARK   98  A    between atoms: _255  and  _258
REMARK   99  A    between atoms: _261  and  _263
REMARK  100  A    between atoms: _263  and  _264
REMARK  101  A    between atoms: _263  and  _266
REMARK  102  A    between atoms: _266  and  _267
REMARK  103  A    between atoms: _270  and  _272
REMARK  104  A    between atoms: _272  and  _273
REMARK  105  A    between atoms: _272  and  _275
REMARK  106  A    between atoms: _275  and  _276
REMARK  107  A    between atoms: _282  and  _283
REMARK  108  A    between atoms: _288  and  _290
REMARK  109  A    between atoms: _290  and  _291
REMARK  110  A    between atoms: _290  and  _293
REMARK  111  A    between atoms: _293  and  _294
REMARK  112  A    between atoms: _296  and  _298
REMARK  113  A    between atoms: _298  and  _299
REMARK  114  A    between atoms: _298  and  _301
REMARK  115  A    between atoms: _301  and  _302
REMARK  116  A    between atoms: _308  and  _309
REMARK  117  A    between atoms: _314  and  _316
REMARK  118  A    between atoms: _316  and  _317
REMARK  119  A    between atoms: _316  and  _319
REMARK  120  A    between atoms: _319  and  _320
REMARK  121  A    between atoms: _323  and  _325
REMARK  122  A    between atoms: _325  and  _326
REMARK  123  A    between atoms: _325  and  _328
REMARK  124  A    between atoms: _328  and  _329
REMARK  125  A    between atoms: _329  and  _330
REMARK  126  A    between atoms: _333  and  _335
REMARK  127  A    between atoms: _335  and  _336
REMARK  128  A    between atoms: _335  and  _338
REMARK  129  A    between atoms: _338  and  _339
REMARK  130  A    between atoms: _342  and  _344
REMARK  131  A    between atoms: _344  and  _345
REMARK  132  A    between atoms: _344  and  _347
REMARK  133  A    between atoms: _347  and  _348
REMARK  134  A    between atoms: _353  and  _354
REMARK  135  A    between atoms: _356  and  _358
REMARK  136  A    between atoms: _358  and  _359
REMARK  137  A    between atoms: _358  and  _361
REMARK  138  A    between atoms: _364  and  _366
REMARK  139  A    between atoms: _366  and  _367
REMARK  140  A    between atoms: _366  and  _369
REMARK  141  A    between atoms: _369  and  _370
REMARK  142  A    between atoms: _375  and  _376
REMARK  143  A    between atoms: _378  and  _380
REMARK  144  A    between atoms: _380  and  _381
REMARK  145  A    between atoms: _380  and  _383
REMARK  146  A    between atoms: _383  and  _384
REMARK  147  A    between atoms: _386  and  _388
REMARK  148  A    between atoms: _388  and  _389
REMARK  149  A    between atoms: _388  and  _391
REMARK  150  A    between atoms: _391  and  _392
REMARK  151  A    between atoms: _395  and  _397
REMARK  152  A    between atoms: _397  and  _398
REMARK  153  A    between atoms: _397  and  _400
REMARK  154  A    between atoms: _400  and  _401
REMARK  155  A    between atoms: _403  and  _405
REMARK  156  A    between atoms: _405  and  _406
REMARK  157  A    between atoms: _405  and  _408
REMARK  158  A    between atoms: _408  and  _409
REMARK  159  A    between atoms: _409  and  _410
REMARK  160  A    between atoms: _410  and  _411
REMARK  161  A    between atoms: _411  and  _412
REMARK  162  A    between atoms: _416  and  _418
REMARK  163  A    between atoms: _418  and  _419
REMARK  164  A    between atoms: _418  and  _421
REMARK  165  A    between atoms: _421  and  _422
REMARK  166  A    between atoms: _426  and  _427
REMARK  167  A    between atoms: _432  and  _434
REMARK  168  A    between atoms: _434  and  _435
REMARK  169  A    between atoms: _437  and  _439
REMARK  170  A    between atoms: _439  and  _440
REMARK  171  A    between atoms: _439  and  _442
REMARK  172  A    between atoms: _442  and  _443
REMARK  173  A    between atoms: _449  and  _451
REMARK  174  A    between atoms: _451  and  _452
REMARK  175  A    between atoms: _451  and  _454
REMARK  176  A    between atoms: _454  and  _455
REMARK  177  A    between atoms: _455  and  _456
REMARK  178  A    between atoms: _456  and  _457
REMARK  179  A    between atoms: _466  and  _468
REMARK  180  A    between atoms: _468  and  _469
REMARK  181  A    between atoms: _468  and  _471
REMARK  182  A    between atoms: _474  and  _476
REMARK  183  A    between atoms: _476  and  _477
REMARK  184  A    between atoms: _479  and  _481
REMARK  185  A    between atoms: _481  and  _482
REMARK  186  A    between atoms: _485  and  _487
REMARK  187  A    between atoms: _487  and  _488
REMARK  188  A    between atoms: _487  and  _490
REMARK  189  A    between atoms: _490  and  _491
REMARK  190  A    between atoms: _494  and  _496
REMARK  191  A    between atoms: _496  and  _497
REMARK  192  A    between atoms: _496  and  _499
REMARK  193  A    between atoms: _499  and  _500
REMARK  194  A    between atoms: _506  and  _508
REMARK  195  A    between atoms: _508  and  _509
REMARK  196  A    between atoms: _508  and  _511
REMARK  197  A    between atoms: _511  and  _512
REMARK  198  A    between atoms: _514  and  _516
REMARK  199  A    between atoms: _516  and  _517
REMARK  200  A    between atoms: _516  and  _519
REMARK  201  A    between atoms: _521  and  _523
REMARK  202  A    between atoms: _523  and  _524
REMARK  203  A    between atoms: _523  and  _526
REMARK  204  A    between atoms: _526  and  _527
REMARK  205  A    between atoms: _527  and  _528
REMARK  206  A    between atoms: _528  and  _529
REMARK  207  A    between atoms: _538  and  _540
REMARK  208  A    between atoms: _540  and  _541
REMARK  209  A    between atoms: _540  and  _543
REMARK  210  A    between atoms: _545  and  _547
REMARK  211  A    between atoms: _547  and  _548
REMARK  212  A    between atoms: _547  and  _550
REMARK  213  A    between atoms: _550  and  _551
REMARK  214  A    between atoms: _556  and  _558
REMARK  215  A    between atoms: _558  and  _559
REMARK  216  A    between atoms: _558  and  _561
REMARK  217  A    between atoms: _561  and  _562
REMARK  218  A    between atoms: _565  and  _567
REMARK  219  A    between atoms: _567  and  _568
REMARK  220  A    between atoms: _567  and  _570
REMARK  221  A    between atoms: _570  and  _571
REMARK  222  A    between atoms: _571  and  _572
REMARK  223  A    between atoms: _577  and  _579
REMARK  224  A    between atoms: _579  and  _580
REMARK  225  A    between atoms: _579  and  _582
REMARK  226  A    between atoms: _582  and  _583
REMARK  227  A    between atoms: _586  and  _588
REMARK  228  A    between atoms: _588  and  _589
REMARK  229  A    between atoms: _588  and  _591
REMARK  230  A    between atoms: _591  and  _592
REMARK  231  A    between atoms: _597  and  _598
REMARK  232  A    between atoms: _600  and  _602
REMARK  233  A    between atoms: _602  and  _603
REMARK  234  A    between atoms: _602  and  _605
REMARK  235  A    between atoms: _605  and  _606
REMARK  236  A    between atoms: _608  and  _610
REMARK  237  A    between atoms: _610  and  _611
REMARK  238  A    between atoms: _610  and  _613
REMARK  239  A    between atoms: _613  and  _614
REMARK  240  A    between atoms: _620  and  _622
REMARK  241  A    between atoms: _622  and  _623
REMARK  242  A    between atoms: _622  and  _625
REMARK  243  A    between atoms: _625  and  _626
REMARK                            x       y       z     vdW  Elec       q    Type
REMARK                         _______ _______ _______ _____ _____    ______ ____
ROOT
ATOM      1  NE  ARG A   1      12.483   0.948  16.601  0.00  0.00    -0.265 N 
ATOM      2  CZ  ARG A   1      13.409   0.770  17.540  0.00  0.00    +0.342 C 
ATOM      3  NH2 ARG A   1      13.062   0.343  18.745  0.00  0.00    -0.292 N 
ATOM      4 HH21 ARG A   1      13.788   0.205  19.477  0.00  0.00    +0.255 HD
ATOM      5 HH22 ARG A   1      12.064   0.146  18.959  0.00  0.00    +0.255 HD
ATOM      6  NH1 ARG A   1      14.682   1.021  17.267  0.00  0.00    -0.292 N 
ATOM      7 HH11 ARG A   1      15.408   0.883  17.999  0.00  0.00    +0.255 HD
ATOM      8 HH12 ARG A   1      14.955   1.356  16.321  0.00  0.00    +0.255 HD
ATOM      9  HE  ARG A   1      11.493   0.741  16.843  0.00  0.00    +0.259 HD
ENDROOT
BRANCH   1  10
ATOM     10  CD  ARG A   1      12.777   1.417  15.250  0.00  0.00    +0.174 C 
BRANCH  10  11
ATOM     11  CG  ARG A   1      11.600   1.231  14.294  0.00  0.00    +0.045 C 
BRANCH  11  12
ATOM     12  CB  ARG A   1      10.453   2.219  14.542  0.00  0.00    +0.029 C 
BRANCH  12  13
ATOM     13  CA  ARG A   1       9.208   1.849  13.729  0.00  0.00    +0.133 C 
BRANCH  13  14
ATOM     14  N   ARG A   1       8.186   2.884  13.785  0.00  0.00    -0.239 NA
ATOM     15  H   ARG A   1       8.020   3.402  14.671  0.00  0.00    +0.142 HD
ENDBRANCH  13  14
BRANCH  13  16
ATOM     16  C   ARG A   1       8.565   0.603  14.324  0.00  0.00    +0.224 C 
ATOM     17  O   ARG A   1       8.003   0.643  15.420  0.00  0.00    -0.287 OA
ENDBRANCH  13  16
ENDBRANCH  12  13
ENDBRANCH  11  12
ENDBRANCH  10  11
ENDBRANCH   1  10
TORSDOF 6
REMARK  Name = ../refined-set-2016/1m7y/1m7y_pocket.pdb
REMARK  243 active torsions:
REMARK  status: ('A' for Active; 'I' for Inactive)
REMARK    1  A    between atoms: _1  and  _3
REMARK    2  A    between atoms: _3  and  _4
REMARK    3  A    between atoms: _3  and  _6
REMARK    4  A    between atoms: _6  and  _7
REMARK    5  A    between atoms: _12  and  _13
REMARK    6  A    between atoms: _15  and  _17
REMARK    7  A    between atoms: _17  and  _18
REMARK    8  A    between atoms: _17  and  _20
REMARK    9  A    between atoms: _20  and  _21
REMARK   10  A    between atoms: _27  and  _29
REMARK   11  A    between atoms: _29  and  _30
REMARK   12  A    between atoms: _29  and  _32
REMARK   13  A    between atoms: _32  and  _33
REMARK   14  A    between atoms: _43  and  _45
REMARK   15  A    between atoms: _45  and  _46
REMARK   16  A    between atoms: _45  and  _48
REMARK   17  A    between atoms: _48  and  _49
REMARK   18  A    between atoms: _49  and  _50
REMARK   19  A    between atoms: _55  and  _57
REMARK   20  A    between atoms: _57  and  _58
REMARK   21  A    between atoms: _60  and  _62
REMARK   22  A    between atoms: _62  and  _63
REMARK   23  A    between atoms: _62  and  _65
REMARK   24  A    between atoms: _65  and  _66
REMARK   25  A    between atoms: _69  and  _71
REMARK   26  A    between atoms: _71  and  _72
REMARK   27  A    between atoms: _75  and  _77
REMARK   28  A    between atoms: _77  and  _78
REMARK   29  A    between atoms: _77  and  _80
REMARK   30  A    between atoms: _80  and  _81
REMARK   31  A    between atoms: _81  and  _82
REMARK   32  A    between atoms: _85  and  _87
REMARK   33  A    between atoms: _87  and  _88
REMARK   34  A    between atoms: _87  and  _90
REMARK   35  A    between atoms: _90  and  _91
REMARK   36  A    between atoms: _96  and  _98
REMARK   37  A    between atoms: _98  and  _99
REMARK   38  A    between atoms: _98  and  _101
REMARK   39  A    between atoms: _101  and  _102
REMARK   40  A    between atoms: _105  and  _107
REMARK   41  A    between atoms: _107  and  _108
REMARK   42  A    between atoms: _111  and  _113
REMARK   43  A    between atoms: _113  and  _114
REMARK   44  A    between atoms: _116  and  _118
REMARK   45  A    between atoms: _118  and  _119
REMARK   46  A    between atoms: _122  and  _124
REMARK   47  A    between atoms: _124  and  _125
REMARK   48  A    between atoms: _124  and  _127
REMARK   49  A    between atoms: _127  and  _128
REMARK   50  A    between atoms: _131  and  _133
REMARK   51  A    between atoms: _133  and  _134
REMARK   52  A    between atoms: _133  and  _136
REMARK   53  A    between atoms: _136  and  _137
REMARK   54  A    between atoms: _139  and  _141
REMARK   55  A    between atoms: _141  and  _142
REMARK   56  A    between atoms: _145  and  _147
REMARK   57  A    between atoms: _147  and  _148
REMARK   58  A    between atoms: _147  and  _150
REMARK   59  A    between atoms: _150  and  _151
REMARK   60  A    between atoms: _156  and  _158
REMARK   61  A    between atoms: _158  and  _159
REMARK   62  A    between atoms: _158  and  _161
REMARK   63  A    between atoms: _161  and  _162
REMARK   64  A    between atoms: _162  and  _163
REMARK   65  A    between atoms: _166  and  _168
REMARK   66  A    between atoms: _168  and  _169
REMARK   67  A    between atoms: _168  and  _171
REMARK   68  A    between atoms: _171  and  _172
REMARK   69  A    between atoms: _177  and  _178
REMARK   70  A    between atoms: _180  and  _182
REMARK   71  A    between atoms: _182  and  _183
REMARK   72  A    between atoms: _182  and  _185
REMARK   73  A    between atoms: _185  and  _186
REMARK   74  A    between atoms: _191  and  _192
REMARK   75  A    between atoms: _195  and  _196
REMARK   76  A    between atoms: _201  and  _203
REMARK   77  A    between atoms: _203  and  _204
REMARK   78  A    between atoms: _206  and  _208
REMARK   79  A    between atoms: _208  and  _209
REMARK   80  A    between atoms: _208  and  _211
REMARK   81  A    between atoms: _211  and  _212
REMARK   82  A    between atoms: _218  and  _220
REMARK   83  A    between atoms: _220  and  _221
REMARK   84  A    between atoms: _220  and  _223
REMARK   85  A    between atoms: _223  and  _224
REMARK   86  A    between atoms: _224  and  _225
REMARK   87  A    between atoms: _225  and  _226
REMARK   88  A    between atoms: _235  and  _237
REMARK   89  A    between atoms: _237  and  _238
REMARK   90  A    between atoms: _237  and  _240
REMARK   91  A    between atoms: _240  and  _241
REMARK   92  A    between atoms: _244  and  _246
REMARK   93  A    between atoms: _246  and  _247
REMARK   94  A    between atoms: _246  and  _249
REMARK   95  A    between atoms: _249  and  _250
REMARK   96  A    between atoms: _253  and  _255
REMARK   97  A    between atoms: _255  and  _256
REMARK   98  A    between atoms: _255  and  _258
REMARK   99  A    between atoms: _261  and  _263
REMARK  100  A    between atoms: _263  and  _264
REMARK  101  A    between atoms: _263  and  _266
REMARK  102  A    between atoms: _266  and  _267
REMARK  103  A    between atoms: _270  and  _272
REMARK  104  A    between atoms: _272  and  _273
REMARK  105  A    between atoms: _272  and  _275
REMARK  106  A    between atoms: _275  and  _276
REMARK  107  A    between atoms: _282  and  _283
REMARK  108  A    between atoms: _288  and  _290
REMARK  109  A    between atoms: _290  and  _291
REMARK  110  A    between atoms: _290  and  _293
REMARK  111  A    between atoms: _293  and  _294
REMARK  112  A    between atoms: _296  and  _298
REMARK  113  A    between atoms: _298  and  _299
REMARK  114  A    between atoms: _298  and  _301
REMARK  115  A    between atoms: _301  and  _302
REMARK  116  A    between atoms: _308  and  _309
REMARK  117  A    between atoms: _314  and  _316
REMARK  118  A    between atoms: _316  and  _317
REMARK  119  A    between atoms: _316  and  _319
REMARK  120  A    between atoms: _319  and  _320
REMARK  121  A    between atoms: _323  and  _325
REMARK  122  A    between atoms: _325  and  _326
REMARK  123  A    between atoms: _325  and  _328
REMARK  124  A    between atoms: _328  and  _329
REMARK  125  A    between atoms: _329  and  _330
REMARK  126  A    between atoms: _333  and  _335
REMARK  127  A    between atoms: _335  and  _336
REMARK  128  A    between atoms: _335  and  _338
REMARK  129  A    between atoms: _338  and  _339
REMARK  130  A    between atoms: _342  and  _344
REMARK  131  A    between atoms: _344  and  _345
REMARK  132  A    between atoms: _344  and  _347
REMARK  133  A    between atoms: _347  and  _348
REMARK  134  A    between atoms: _353  and  _354
REMARK  135  A    between atoms: _356  and  _358
REMARK  136  A    between atoms: _358  and  _359
REMARK  137  A    between atoms: _358  and  _361
REMARK  138  A    between atoms: _364  and  _366
REMARK  139  A    between atoms: _366  and  _367
REMARK  140  A    between atoms: _366  and  _369
REMARK  141  A    between atoms: _369  and  _370
REMARK  142  A    between atoms: _375  and  _376
REMARK  143  A    between atoms: _378  and  _380
REMARK  144  A    between atoms: _380  and  _381
REMARK  145  A    between atoms: _380  and  _383
REMARK  146  A    between atoms: _383  and  _384
REMARK  147  A    between atoms: _386  and  _388
REMARK  148  A    between atoms: _388  and  _389
REMARK  149  A    between atoms: _388  and  _391
REMARK  150  A    between atoms: _391  and  _392
REMARK  151  A    between atoms: _395  and  _397
REMARK  152  A    between atoms: _397  and  _398
REMARK  153  A    between atoms: _397  and  _400
REMARK  154  A    between atoms: _400  and  _401
REMARK  155  A    between atoms: _403  and  _405
REMARK  156  A    between atoms: _405  and  _406
REMARK  157  A    between atoms: _405  and  _408
REMARK  158  A    between atoms: _408  and  _409
REMARK  159  A    between atoms: _409  and  _410
REMARK  160  A    between atoms: _410  and  _411
REMARK  161  A    between atoms: _411  and  _412
REMARK  162  A    between atoms: _416  and  _418
REMARK  163  A    between atoms: _418  and  _419
REMARK  164  A    between atoms: _418  and  _421
REMARK  165  A    between atoms: _421  and  _422
REMARK  166  A    between atoms: _426  and  _427
REMARK  167  A    between atoms: _432  and  _434
REMARK  168  A    between atoms: _434  and  _435
REMARK  169  A    between atoms: _437  and  _439
REMARK  170  A    between atoms: _439  and  _440
REMARK  171  A    between atoms: _439  and  _442
REMARK  172  A    between atoms: _442  and  _443
REMARK  173  A    between atoms: _449  and  _451
REMARK  174  A    between atoms: _451  and  _452
REMARK  175  A    between atoms: _451  and  _454
REMARK  176  A    between atoms: _454  and  _455
REMARK  177  A    between atoms: _455  and  _456
REMARK  178  A    between atoms: _456  and  _457
REMARK  179  A    between atoms: _466  and  _468
REMARK  180  A    between atoms: _468  and  _469
REMARK  181  A    between atoms: _468  and  _471
REMARK  182  A    between atoms: _474  and  _476
REMARK  183  A    between atoms: _476  and  _477
REMARK  184  A    between atoms: _479  and  _481
REMARK  185  A    between atoms: _481  and  _482
REMARK  186  A    between atoms: _485  and  _487
REMARK  187  A    between atoms: _487  and  _488
REMARK  188  A    between atoms: _487  and  _490
REMARK  189  A    between atoms: _490  and  _491
REMARK  190  A    between atoms: _494  and  _496
REMARK  191  A    between atoms: _496  and  _497
REMARK  192  A    between atoms: _496  and  _499
REMARK  193  A    between atoms: _499  and  _500
REMARK  194  A    between atoms: _506  and  _508
REMARK  195  A    between atoms: _508  and  _509
REMARK  196  A    between atoms: _508  and  _511
REMARK  197  A    between atoms: _511  and  _512
REMARK  198  A    between atoms: _514  and  _516
REMARK  199  A    between atoms: _516  and  _517
REMARK  200  A    between atoms: _516  and  _519
REMARK  201  A    between atoms: _521  and  _523
REMARK  202  A    between atoms: _523  and  _524
REMARK  203  A    between atoms: _523  and  _526
REMARK  204  A    between atoms: _526  and  _527
REMARK  205  A    between atoms: _527  and  _528
REMARK  206  A    between atoms: _528  and  _529
REMARK  207  A    between atoms: _538  and  _540
REMARK  208  A    between atoms: _540  and  _541
REMARK  209  A    between atoms: _540  and  _543
REMARK  210  A    between atoms: _545  and  _547
REMARK  211  A    between atoms: _547  and  _548
REMARK  212  A    between atoms: _547  and  _550
REMARK  213  A    between atoms: _550  and  _551
REMARK  214  A    between atoms: _556  and  _558
REMARK  215  A    between atoms: _558  and  _559
REMARK  216  A    between atoms: _558  and  _561
REMARK  217  A    between atoms: _561  and  _562
REMARK  218  A    between atoms: _565  and  _567
REMARK  219  A    between atoms: _567  and  _568
REMARK  220  A    between atoms: _567  and  _570
REMARK  221  A    between atoms: _570  and  _571
REMARK  222  A    between atoms: _571  and  _572
REMARK  223  A    between atoms: _577  and  _579
REMARK  224  A    between atoms: _579  and  _580
REMARK  225  A    between atoms: _579  and  _582
REMARK  226  A    between atoms: _582  and  _583
REMARK  227  A    between atoms: _586  and  _588
REMARK  228  A    between atoms: _588  and  _589
REMARK  229  A    between atoms: _588  and  _591
REMARK  230  A    between atoms: _591  and  _592
REMARK  231  A    between atoms: _597  and  _598
REMARK  232  A    between atoms: _600  and  _602
REMARK  233  A    between atoms: _602  and  _603
REMARK  234  A    between atoms: _602  and  _605
REMARK  235  A    between atoms: _605  and  _606
REMARK  236  A    between atoms: _608  and  _610
REMARK  237  A    between atoms: _610  and  _611
REMARK  238  A    between atoms: _610  and  _613
REMARK  239  A    between atoms: _613  and  _614
REMARK  240  A    between atoms: _620  and  _622
REMARK  241  A    between atoms: _622  and  _623
REMARK  242  A    between atoms: _622  and  _625
REMARK  243  A    between atoms: _625  and  _626
REMARK                            x       y       z     vdW  Elec       q    Type
REMARK                         _______ _______ _______ _____ _____    ______ ____
ROOT
ATOM      1  CA  CYS A   1      10.507  -4.356  15.351  0.00  0.00    +0.145 C 
ENDROOT
BRANCH   1   2
ATOM      2  N   CYS A   1       9.460  -3.345  15.205  0.00  0.00    -0.238 NA
ATOM      3  H   CYS A   1       8.943  -3.030  16.051  0.00  0.00    +0.142 HD
ENDBRANCH   1   2
BRANCH   1   4
ATOM      4  CB  CYS A   1      11.138  -4.233  16.736  0.00  0.00    +0.094 C 
ATOM      5  SG  CYS A   1      11.784  -2.562  17.040  0.00  0.00    -0.080 S 
ENDBRANCH   1   4
BRANCH   1   6
ATOM      6  C   CYS A   1       9.953  -5.757  15.125  0.00  0.00    +0.225 C 
ATOM      7  O   CYS A   1       8.940  -6.140  15.715  0.00  0.00    -0.287 OA
ENDBRANCH   1   6
TORSDOF 3
REMARK  Name = ../refined-set-2016/1m7y/1m7y_pocket.pdb
REMARK  243 active torsions:
REMARK  status: ('A' for Active; 'I' for Inactive)
REMARK    1  A    between atoms: _1  and  _3
REMARK    2  A    between atoms: _3  and  _4
REMARK    3  A    between atoms: _3  and  _6
REMARK    4  A    between atoms: _6  and  _7
REMARK    5  A    between atoms: _12  and  _13
REMARK    6  A    between atoms: _15  and  _17
REMARK    7  A    between atoms: _17  and  _18
REMARK    8  A    between atoms: _17  and  _20
REMARK    9  A    between atoms: _20  and  _21
REMARK   10  A    between atoms: _27  and  _29
REMARK   11  A    between atoms: _29  and  _30
REMARK   12  A    between atoms: _29  and  _32
REMARK   13  A    between atoms: _32  and  _33
REMARK   14  A    between atoms: _43  and  _45
REMARK   15  A    between atoms: _45  and  _46
REMARK   16  A    between atoms: _45  and  _48
REMARK   17  A    between atoms: _48  and  _49
REMARK   18  A    between atoms: _49  and  _50
REMARK   19  A    between atoms: _55  and  _57
REMARK   20  A    between atoms: _57  and  _58
REMARK   21  A    between atoms: _60  and  _62
REMARK   22  A    between atoms: _62  and  _63
REMARK   23  A    between atoms: _62  and  _65
REMARK   24  A    between atoms: _65  and  _66
REMARK   25  A    between atoms: _69  and  _71
REMARK   26  A    between atoms: _71  and  _72
REMARK   27  A    between atoms: _75  and  _77
REMARK   28  A    between atoms: _77  and  _78
REMARK   29  A    between atoms: _77  and  _80
REMARK   30  A    between atoms: _80  and  _81
REMARK   31  A    between atoms: _81  and  _82
REMARK   32  A    between atoms: _85  and  _87
REMARK   33  A    between atoms: _87  and  _88
REMARK   34  A    between atoms: _87  and  _90
REMARK   35  A    between atoms: _90  and  _91
REMARK   36  A    between atoms: _96  and  _98
REMARK   37  A    between atoms: _98  and  _99
REMARK   38  A    between atoms: _98  and  _101
REMARK   39  A    between atoms: _101  and  _102
REMARK   40  A    between atoms: _105  and  _107
REMARK   41  A    between atoms: _107  and  _108
REMARK   42  A    between atoms: _111  and  _113
REMARK   43  A    between atoms: _113  and  _114
REMARK   44  A    between atoms: _116  and  _118
REMARK   45  A    between atoms: _118  and  _119
REMARK   46  A    between atoms: _122  and  _124
REMARK   47  A    between atoms: _124  and  _125
REMARK   48  A    between atoms: _124  and  _127
REMARK   49  A    between atoms: _127  and  _128
REMARK   50  A    between atoms: _131  and  _133
REMARK   51  A    between atoms: _133  and  _134
REMARK   52  A    between atoms: _133  and  _136
REMARK   53  A    between atoms: _136  and  _137
REMARK   54  A    between atoms: _139  and  _141
REMARK   55  A    between atoms: _141  and  _142
REMARK   56  A    between atoms: _145  and  _147
REMARK   57  A    between atoms: _147  and  _148
REMARK   58  A    between atoms: _147  and  _150
REMARK   59  A    between atoms: _150  and  _151
REMARK   60  A    between atoms: _156  and  _158
REMARK   61  A    between atoms: _158  and  _159
REMARK   62  A    between atoms: _158  and  _161
REMARK   63  A    between atoms: _161  and  _162
REMARK   64  A    between atoms: _162  and  _163
REMARK   65  A    between atoms: _166  and  _168
REMARK   66  A    between atoms: _168  and  _169
REMARK   67  A    between atoms: _168  and  _171
REMARK   68  A    between atoms: _171  and  _172
REMARK   69  A    between atoms: _177  and  _178
REMARK   70  A    between atoms: _180  and  _182
REMARK   71  A    between atoms: _182  and  _183
REMARK   72  A    between atoms: _182  and  _185
REMARK   73  A    between atoms: _185  and  _186
REMARK   74  A    between atoms: _191  and  _192
REMARK   75  A    between atoms: _195  and  _196
REMARK   76  A    between atoms: _201  and  _203
REMARK   77  A    between atoms: _203  and  _204
REMARK   78  A    between atoms: _206  and  _208
REMARK   79  A    between atoms: _208  and  _209
REMARK   80  A    between atoms: _208  and  _211
REMARK   81  A    between atoms: _211  and  _212
REMARK   82  A    between atoms: _218  and  _220
REMARK   83  A    between atoms: _220  and  _221
REMARK   84  A    between atoms: _220  and  _223
REMARK   85  A    between atoms: _223  and  _224
REMARK   86  A    between atoms: _224  and  _225
REMARK   87  A    between atoms: _225  and  _226
REMARK   88  A    between atoms: _235  and  _237
REMARK   89  A    between atoms: _237  and  _238
REMARK   90  A    between atoms: _237  and  _240
REMARK   91  A    between atoms: _240  and  _241
REMARK   92  A    between atoms: _244  and  _246
REMARK   93  A    between atoms: _246  and  _247
REMARK   94  A    between atoms: _246  and  _249
REMARK   95  A    between atoms: _249  and  _250
REMARK   96  A    between atoms: _253  and  _255
REMARK   97  A    between atoms: _255  and  _256
REMARK   98  A    between atoms: _255  and  _258
REMARK   99  A    between atoms: _261  and  _263
REMARK  100  A    between atoms: _263  and  _264
REMARK  101  A    between atoms: _263  and  _266
REMARK  102  A    between atoms: _266  and  _267
REMARK  103  A    between atoms: _270  and  _272
REMARK  104  A    between atoms: _272  and  _273
REMARK  105  A    between atoms: _272  and  _275
REMARK  106  A    between atoms: _275  and  _276
REMARK  107  A    between atoms: _282  and  _283
REMARK  108  A    between atoms: _288  and  _290
REMARK  109  A    between atoms: _290  and  _291
REMARK  110  A    between atoms: _290  and  _293
REMARK  111  A    between atoms: _293  and  _294
REMARK  112  A    between atoms: _296  and  _298
REMARK  113  A    between atoms: _298  and  _299
REMARK  114  A    between atoms: _298  and  _301
REMARK  115  A    between atoms: _301  and  _302
REMARK  116  A    between atoms: _308  and  _309
REMARK  117  A    between atoms: _314  and  _316
REMARK  118  A    between atoms: _316  and  _317
REMARK  119  A    between atoms: _316  and  _319
REMARK  120  A    between atoms: _319  and  _320
REMARK  121  A    between atoms: _323  and  _325
REMARK  122  A    between atoms: _325  and  _326
REMARK  123  A    between atoms: _325  and  _328
REMARK  124  A    between atoms: _328  and  _329
REMARK  125  A    between atoms: _329  and  _330
REMARK  126  A    between atoms: _333  and  _335
REMARK  127  A    between atoms: _335  and  _336
REMARK  128  A    between atoms: _335  and  _338
REMARK  129  A    between atoms: _338  and  _339
REMARK  130  A    between atoms: _342  and  _344
REMARK  131  A    between atoms: _344  and  _345
REMARK  132  A    between atoms: _344  and  _347
REMARK  133  A    between atoms: _347  and  _348
REMARK  134  A    between atoms: _353  and  _354
REMARK  135  A    between atoms: _356  and  _358
REMARK  136  A    between atoms: _358  and  _359
REMARK  137  A    between atoms: _358  and  _361
REMARK  138  A    between atoms: _364  and  _366
REMARK  139  A    between atoms: _366  and  _367
REMARK  140  A    between atoms: _366  and  _369
REMARK  141  A    between atoms: _369  and  _370
REMARK  142  A    between atoms: _375  and  _376
REMARK  143  A    between atoms: _378  and  _380
REMARK  144  A    between atoms: _380  and  _381
REMARK  145  A    between atoms: _380  and  _383
REMARK  146  A    between atoms: _383  and  _384
REMARK  147  A    between atoms: _386  and  _388
REMARK  148  A    between atoms: _388  and  _389
REMARK  149  A    between atoms: _388  and  _391
REMARK  150  A    between atoms: _391  and  _392
REMARK  151  A    between atoms: _395  and  _397
REMARK  152  A    between atoms: _397  and  _398
REMARK  153  A    between atoms: _397  and  _400
REMARK  154  A    between atoms: _400  and  _401
REMARK  155  A    between atoms: _403  and  _405
REMARK  156  A    between atoms: _405  and  _406
REMARK  157  A    between atoms: _405  and  _408
REMARK  158  A    between atoms: _408  and  _409
REMARK  159  A    between atoms: _409  and  _410
REMARK  160  A    between atoms: _410  and  _411
REMARK  161  A    between atoms: _411  and  _412
REMARK  162  A    between atoms: _416  and  _418
REMARK  163  A    between atoms: _418  and  _419
REMARK  164  A    between atoms: _418  and  _421
REMARK  165  A    between atoms: _421  and  _422
REMARK  166  A    between atoms: _426  and  _427
REMARK  167  A    between atoms: _432  and  _434
REMARK  168  A    between atoms: _434  and  _435
REMARK  169  A    between atoms: _437  and  _439
REMARK  170  A    between atoms: _439  and  _440
REMARK  171  A    between atoms: _439  and  _442
REMARK  172  A    between atoms: _442  and  _443
REMARK  173  A    between atoms: _449  and  _451
REMARK  174  A    between atoms: _451  and  _452
REMARK  175  A    between atoms: _451  and  _454
REMARK  176  A    between atoms: _454  and  _455
REMARK  177  A    between atoms: _455  and  _456
REMARK  178  A    between atoms: _456  and  _457
REMARK  179  A    between atoms: _466  and  _468
REMARK  180  A    between atoms: _468  and  _469
REMARK  181  A    between atoms: _468  and  _471
REMARK  182  A    between atoms: _474  and  _476
REMARK  183  A    between atoms: _476  and  _477
REMARK  184  A    between atoms: _479  and  _481
REMARK  185  A    between atoms: _481  and  _482
REMARK  186  A    between atoms: _485  and  _487
REMARK  187  A    between atoms: _487  and  _488
REMARK  188  A    between atoms: _487  and  _490
REMARK  189  A    between atoms: _490  and  _491
REMARK  190  A    between atoms: _494  and  _496
REMARK  191  A    between atoms: _496  and  _497
REMARK  192  A    between atoms: _496  and  _499
REMARK  193  A    between atoms: _499  and  _500
REMARK  194  A    between atoms: _506  and  _508
REMARK  195  A    between atoms: _508  and  _509
REMARK  196  A    between atoms: _508  and  _511
REMARK  197  A    between atoms: _511  and  _512
REMARK  198  A    between atoms: _514  and  _516
REMARK  199  A    between atoms: _516  and  _517
REMARK  200  A    between atoms: _516  and  _519
REMARK  201  A    between atoms: _521  and  _523
REMARK  202  A    between atoms: _523  and  _524
REMARK  203  A    between atoms: _523  and  _526
REMARK  204  A    between atoms: _526  and  _527
REMARK  205  A    between atoms: _527  and  _528
REMARK  206  A    between atoms: _528  and  _529
REMARK  207  A    between atoms: _538  and  _540
REMARK  208  A    between atoms: _540  and  _541
REMARK  209  A    between atoms: _540  and  _543
REMARK  210  A    between atoms: _545  and  _547
REMARK  211  A    between atoms: _547  and  _548
REMARK  212  A    between atoms: _547  and  _550
REMARK  213  A    between atoms: _550  and  _551
REMARK  214  A    between atoms: _556  and  _558
REMARK  215  A    between atoms: _558  and  _559
REMARK  216  A    between atoms: _558  and  _561
REMARK  217  A    between atoms: _561  and  _562
REMARK  218  A    between atoms: _565  and  _567
REMARK  219  A    between atoms: _567  and  _568
REMARK  220  A    between atoms: _567  and  _570
REMARK  221  A    between atoms: _570  and  _571
REMARK  222  A    between atoms: _571  and  _572
REMARK  223  A    between atoms: _577  and  _579
REMARK  224  A    between atoms: _579  and  _580
REMARK  225  A    between atoms: _579  and  _582
REMARK  226  A    between atoms: _582  and  _583
REMARK  227  A    between atoms: _586  and  _588
REMARK  228  A    between atoms: _588  and  _589
REMARK  229  A    between atoms: _588  and  _591
REMARK  230  A    between atoms: _591  and  _592
REMARK  231  A    between atoms: _597  and  _598
REMARK  232  A    between atoms: _600  and  _602
REMARK  233  A    between atoms: _602  and  _603
REMARK  234  A    between atoms: _602  and  _605
REMARK  235  A    between atoms: _605  and  _606
REMARK  236  A    between atoms: _608  and  _610
REMARK  237  A    between atoms: _610  and  _611
REMARK  238  A    between atoms: _610  and  _613
REMARK  239  A    between atoms: _613  and  _614
REMARK  240  A    between atoms: _620  and  _622
REMARK  241  A    between atoms: _622  and  _623
REMARK  242  A    between atoms: _622  and  _625
REMARK  243  A    between atoms: _625  and  _626
REMARK                            x       y       z     vdW  Elec       q    Type
REMARK                         _______ _______ _______ _____ _____    ______ ____
ROOT
ATOM      1  CB  ASN A   1      12.259  -8.411  19.887  0.00  0.00    +0.110 C 
ENDROOT
BRANCH   1   2
ATOM      2  CG  ASN A   1      12.441  -8.483  21.391  0.00  0.00    +0.221 C 
ATOM      3  ND2 ASN A   1      11.875  -7.508  22.095  0.00  0.00    -0.329 N 
ATOM      4 HD21 ASN A   1      11.976  -7.487  23.130  0.00  0.00    +0.145 HD
ATOM      5 HD22 ASN A   1      11.331  -6.766  21.611  0.00  0.00    +0.145 HD
ATOM      6  OD1 ASN A   1      13.096  -9.386  21.915  0.00  0.00    -0.275 OA
ENDBRANCH   1   2
BRANCH   1   7
ATOM      7  CA  ASN A   1      12.083  -9.790  19.232  0.00  0.00    +0.142 C 
BRANCH   7   8
ATOM      8  N   ASN A   1      12.093  -9.618  17.786  0.00  0.00    -0.239 NA
ATOM      9  H   ASN A   1      11.453  -8.923  17.352  0.00  0.00    +0.142 HD
ENDBRANCH   7   8
BRANCH   7  10
ATOM     10  C   ASN A   1      10.824 -10.490  19.742  0.00  0.00    +0.225 C 
ATOM     11  O   ASN A   1      10.273 -10.131  20.781  0.00  0.00    -0.287 OA
ENDBRANCH   7  10
ENDBRANCH   1   7
TORSDOF 4
REMARK  Name = ../refined-set-2016/1m7y/1m7y_pocket.pdb
REMARK  243 active torsions:
REMARK  status: ('A' for Active; 'I' for Inactive)
REMARK    1  A    between atoms: _1  and  _3
REMARK    2  A    between atoms: _3  and  _4
REMARK    3  A    between atoms: _3  and  _6
REMARK    4  A    between atoms: _6  and  _7
REMARK    5  A    between atoms: _12  and  _13
REMARK    6  A    between atoms: _15  and  _17
REMARK    7  A    between atoms: _17  and  _18
REMARK    8  A    between atoms: _17  and  _20
REMARK    9  A    between atoms: _20  and  _21
REMARK   10  A    between atoms: _27  and  _29
REMARK   11  A    between atoms: _29  and  _30
REMARK   12  A    between atoms: _29  and  _32
REMARK   13  A    between atoms: _32  and  _33
REMARK   14  A    between atoms: _43  and  _45
REMARK   15  A    between atoms: _45  and  _46
REMARK   16  A    between atoms: _45  and  _48
REMARK   17  A    between atoms: _48  and  _49
REMARK   18  A    between atoms: _49  and  _50
REMARK   19  A    between atoms: _55  and  _57
REMARK   20  A    between atoms: _57  and  _58
REMARK   21  A    between atoms: _60  and  _62
REMARK   22  A    between atoms: _62  and  _63
REMARK   23  A    between atoms: _62  and  _65
REMARK   24  A    between atoms: _65  and  _66
REMARK   25  A    between atoms: _69  and  _71
REMARK   26  A    between atoms: _71  and  _72
REMARK   27  A    between atoms: _75  and  _77
REMARK   28  A    between atoms: _77  and  _78
REMARK   29  A    between atoms: _77  and  _80
REMARK   30  A    between atoms: _80  and  _81
REMARK   31  A    between atoms: _81  and  _82
REMARK   32  A    between atoms: _85  and  _87
REMARK   33  A    between atoms: _87  and  _88
REMARK   34  A    between atoms: _87  and  _90
REMARK   35  A    between atoms: _90  and  _91
REMARK   36  A    between atoms: _96  and  _98
REMARK   37  A    between atoms: _98  and  _99
REMARK   38  A    between atoms: _98  and  _101
REMARK   39  A    between atoms: _101  and  _102
REMARK   40  A    between atoms: _105  and  _107
REMARK   41  A    between atoms: _107  and  _108
REMARK   42  A    between atoms: _111  and  _113
REMARK   43  A    between atoms: _113  and  _114
REMARK   44  A    between atoms: _116  and  _118
REMARK   45  A    between atoms: _118  and  _119
REMARK   46  A    between atoms: _122  and  _124
REMARK   47  A    between atoms: _124  and  _125
REMARK   48  A    between atoms: _124  and  _127
REMARK   49  A    between atoms: _127  and  _128
REMARK   50  A    between atoms: _131  and  _133
REMARK   51  A    between atoms: _133  and  _134
REMARK   52  A    between atoms: _133  and  _136
REMARK   53  A    between atoms: _136  and  _137
REMARK   54  A    between atoms: _139  and  _141
REMARK   55  A    between atoms: _141  and  _142
REMARK   56  A    between atoms: _145  and  _147
REMARK   57  A    between atoms: _147  and  _148
REMARK   58  A    between atoms: _147  and  _150
REMARK   59  A    between atoms: _150  and  _151
REMARK   60  A    between atoms: _156  and  _158
REMARK   61  A    between atoms: _158  and  _159
REMARK   62  A    between atoms: _158  and  _161
REMARK   63  A    between atoms: _161  and  _162
REMARK   64  A    between atoms: _162  and  _163
REMARK   65  A    between atoms: _166  and  _168
REMARK   66  A    between atoms: _168  and  _169
REMARK   67  A    between atoms: _168  and  _171
REMARK   68  A    between atoms: _171  and  _172
REMARK   69  A    between atoms: _177  and  _178
REMARK   70  A    between atoms: _180  and  _182
REMARK   71  A    between atoms: _182  and  _183
REMARK   72  A    between atoms: _182  and  _185
REMARK   73  A    between atoms: _185  and  _186
REMARK   74  A    between atoms: _191  and  _192
REMARK   75  A    between atoms: _195  and  _196
REMARK   76  A    between atoms: _201  and  _203
REMARK   77  A    between atoms: _203  and  _204
REMARK   78  A    between atoms: _206  and  _208
REMARK   79  A    between atoms: _208  and  _209
REMARK   80  A    between atoms: _208  and  _211
REMARK   81  A    between atoms: _211  and  _212
REMARK   82  A    between atoms: _218  and  _220
REMARK   83  A    between atoms: _220  and  _221
REMARK   84  A    between atoms: _220  and  _223
REMARK   85  A    between atoms: _223  and  _224
REMARK   86  A    between atoms: _224  and  _225
REMARK   87  A    between atoms: _225  and  _226
REMARK   88  A    between atoms: _235  and  _237
REMARK   89  A    between atoms: _237  and  _238
REMARK   90  A    between atoms: _237  and  _240
REMARK   91  A    between atoms: _240  and  _241
REMARK   92  A    between atoms: _244  and  _246
REMARK   93  A    between atoms: _246  and  _247
REMARK   94  A    between atoms: _246  and  _249
REMARK   95  A    between atoms: _249  and  _250
REMARK   96  A    between atoms: _253  and  _255
REMARK   97  A    between atoms: _255  and  _256
REMARK   98  A    between atoms: _255  and  _258
REMARK   99  A    between atoms: _261  and  _263
REMARK  100  A    between atoms: _263  and  _264
REMARK  101  A    between atoms: _263  and  _266
REMARK  102  A    between atoms: _266  and  _267
REMARK  103  A    between atoms: _270  and  _272
REMARK  104  A    between atoms: _272  and  _273
REMARK  105  A    between atoms: _272  and  _275
REMARK  106  A    between atoms: _275  and  _276
REMARK  107  A    between atoms: _282  and  _283
REMARK  108  A    between atoms: _288  and  _290
REMARK  109  A    between atoms: _290  and  _291
REMARK  110  A    between atoms: _290  and  _293
REMARK  111  A    between atoms: _293  and  _294
REMARK  112  A    between atoms: _296  and  _298
REMARK  113  A    between atoms: _298  and  _299
REMARK  114  A    between atoms: _298  and  _301
REMARK  115  A    between atoms: _301  and  _302
REMARK  116  A    between atoms: _308  and  _309
REMARK  117  A    between atoms: _314  and  _316
REMARK  118  A    between atoms: _316  and  _317
REMARK  119  A    between atoms: _316  and  _319
REMARK  120  A    between atoms: _319  and  _320
REMARK  121  A    between atoms: _323  and  _325
REMARK  122  A    between atoms: _325  and  _326
REMARK  123  A    between atoms: _325  and  _328
REMARK  124  A    between atoms: _328  and  _329
REMARK  125  A    between atoms: _329  and  _330
REMARK  126  A    between atoms: _333  and  _335
REMARK  127  A    between atoms: _335  and  _336
REMARK  128  A    between atoms: _335  and  _338
REMARK  129  A    between atoms: _338  and  _339
REMARK  130  A    between atoms: _342  and  _344
REMARK  131  A    between atoms: _344  and  _345
REMARK  132  A    between atoms: _344  and  _347
REMARK  133  A    between atoms: _347  and  _348
REMARK  134  A    between atoms: _353  and  _354
REMARK  135  A    between atoms: _356  and  _358
REMARK  136  A    between atoms: _358  and  _359
REMARK  137  A    between atoms: _358  and  _361
REMARK  138  A    between atoms: _364  and  _366
REMARK  139  A    between atoms: _366  and  _367
REMARK  140  A    between atoms: _366  and  _369
REMARK  141  A    between atoms: _369  and  _370
REMARK  142  A    between atoms: _375  and  _376
REMARK  143  A    between atoms: _378  and  _380
REMARK  144  A    between atoms: _380  and  _381
REMARK  145  A    between atoms: _380  and  _383
REMARK  146  A    between atoms: _383  and  _384
REMARK  147  A    between atoms: _386  and  _388
REMARK  148  A    between atoms: _388  and  _389
REMARK  149  A    between atoms: _388  and  _391
REMARK  150  A    between atoms: _391  and  _392
REMARK  151  A    between atoms: _395  and  _397
REMARK  152  A    between atoms: _397  and  _398
REMARK  153  A    between atoms: _397  and  _400
REMARK  154  A    between atoms: _400  and  _401
REMARK  155  A    between atoms: _403  and  _405
REMARK  156  A    between atoms: _405  and  _406
REMARK  157  A    between atoms: _405  and  _408
REMARK  158  A    between atoms: _408  and  _409
REMARK  159  A    between atoms: _409  and  _410
REMARK  160  A    between atoms: _410  and  _411
REMARK  161  A    between atoms: _411  and  _412
REMARK  162  A    between atoms: _416  and  _418
REMARK  163  A    between atoms: _418  and  _419
REMARK  164  A    between atoms: _418  and  _421
REMARK  165  A    between atoms: _421  and  _422
REMARK  166  A    between atoms: _426  and  _427
REMARK  167  A    between atoms: _432  and  _434
REMARK  168  A    between atoms: _434  and  _435
REMARK  169  A    between atoms: _437  and  _439
REMARK  170  A    between atoms: _439  and  _440
REMARK  171  A    between atoms: _439  and  _442
REMARK  172  A    between atoms: _442  and  _443
REMARK  173  A    between atoms: _449  and  _451
REMARK  174  A    between atoms: _451  and  _452
REMARK  175  A    between atoms: _451  and  _454
REMARK  176  A    between atoms: _454  and  _455
REMARK  177  A    between atoms: _455  and  _456
REMARK  178  A    between atoms: _456  and  _457
REMARK  179  A    between atoms: _466  and  _468
REMARK  180  A    between atoms: _468  and  _469
REMARK  181  A    between atoms: _468  and  _471
REMARK  182  A    between atoms: _474  and  _476
REMARK  183  A    between atoms: _476  and  _477
REMARK  184  A    between atoms: _479  and  _481
REMARK  185  A    between atoms: _481  and  _482
REMARK  186  A    between atoms: _485  and  _487
REMARK  187  A    between atoms: _487  and  _488
REMARK  188  A    between atoms: _487  and  _490
REMARK  189  A    between atoms: _490  and  _491
REMARK  190  A    between atoms: _494  and  _496
REMARK  191  A    between atoms: _496  and  _497
REMARK  192  A    between atoms: _496  and  _499
REMARK  193  A    between atoms: _499  and  _500
REMARK  194  A    between atoms: _506  and  _508
REMARK  195  A    between atoms: _508  and  _509
REMARK  196  A    between atoms: _508  and  _511
REMARK  197  A    between atoms: _511  and  _512
REMARK  198  A    between atoms: _514  and  _516
REMARK  199  A    between atoms: _516  and  _517
REMARK  200  A    between atoms: _516  and  _519
REMARK  201  A    between atoms: _521  and  _523
REMARK  202  A    between atoms: _523  and  _524
REMARK  203  A    between atoms: _523  and  _526
REMARK  204  A    between atoms: _526  and  _527
REMARK  205  A    between atoms: _527  and  _528
REMARK  206  A    between atoms: _528  and  _529
REMARK  207  A    between atoms: _538  and  _540
REMARK  208  A    between atoms: _540  and  _541
REMARK  209  A    between atoms: _540  and  _543
REMARK  210  A    between atoms: _545  and  _547
REMARK  211  A    between atoms: _547  and  _548
REMARK  212  A    between atoms: _547  and  _550
REMARK  213  A    between atoms: _550  and  _551
REMARK  214  A    between atoms: _556  and  _558
REMARK  215  A    between atoms: _558  and  _559
REMARK  216  A    between atoms: _558  and  _561
REMARK  217  A    between atoms: _561  and  _562
REMARK  218  A    between atoms: _565  and  _567
REMARK  219  A    between atoms: _567  and  _568
REMARK  220  A    between atoms: _567  and  _570
REMARK  221  A    between atoms: _570  and  _571
REMARK  222  A    between atoms: _571  and  _572
REMARK  223  A    between atoms: _577  and  _579
REMARK  224  A    between atoms: _579  and  _580
REMARK  225  A    between atoms: _579  and  _582
REMARK  226  A    between atoms: _582  and  _583
REMARK  227  A    between atoms: _586  and  _588
REMARK  228  A    between atoms: _588  and  _589
REMARK  229  A    between atoms: _588  and  _591
REMARK  230  A    between atoms: _591  and  _592
REMARK  231  A    between atoms: _597  and  _598
REMARK  232  A    between atoms: _600  and  _602
REMARK  233  A    between atoms: _602  and  _603
REMARK  234  A    between atoms: _602  and  _605
REMARK  235  A    between atoms: _605  and  _606
REMARK  236  A    between atoms: _608  and  _610
REMARK  237  A    between atoms: _610  and  _611
REMARK  238  A    between atoms: _610  and  _613
REMARK  239  A    between atoms: _613  and  _614
REMARK  240  A    between atoms: _620  and  _622
REMARK  241  A    between atoms: _622  and  _623
REMARK  242  A    between atoms: _622  and  _625
REMARK  243  A    between atoms: _625  and  _626
REMARK                            x       y       z     vdW  Elec       q    Type
REMARK                         _______ _______ _______ _____ _____    ______ ____
ROOT
ATOM      1  CA  LEU A   1      18.670 -10.737  26.471  0.00  0.00    +0.133 C 
ENDROOT
BRANCH   1   2
ATOM      2  N   LEU A   1      19.576 -11.859  26.677  0.00  0.00    -0.239 NA
ATOM      3  H   LEU A   1      19.195 -12.770  27.002  0.00  0.00    +0.142 HD
ENDBRANCH   1   2
BRANCH   1   4
ATOM      4  C   LEU A   1      18.470  -9.852  27.693  0.00  0.00    +0.224 C 
ATOM      5  O   LEU A   1      17.877  -8.780  27.582  0.00  0.00    -0.287 OA
ENDBRANCH   1   4
BRANCH   1   6
ATOM      6  CB  LEU A   1      17.305 -11.244  26.008  0.00  0.00    +0.025 C 
BRANCH   6   7
ATOM      7  CG  LEU A   1      17.262 -11.913  24.635  0.00  0.00    +0.002 C 
ATOM      8  CD2 LEU A   1      15.889 -12.538  24.422  0.00  0.00    +0.000 C 
ATOM      9  CD1 LEU A   1      17.561 -10.886  23.551  0.00  0.00    +0.000 C 
ENDBRANCH   6   7
ENDBRANCH   1   6
TORSDOF 4
REMARK  Name = ../refined-set-2016/1m7y/1m7y_pocket.pdb
REMARK  243 active torsions:
REMARK  status: ('A' for Active; 'I' for Inactive)
REMARK    1  A    between atoms: _1  and  _3
REMARK    2  A    between atoms: _3  and  _4
REMARK    3  A    between atoms: _3  and  _6
REMARK    4  A    between atoms: _6  and  _7
REMARK    5  A    between atoms: _12  and  _13
REMARK    6  A    between atoms: _15  and  _17
REMARK    7  A    between atoms: _17  and  _18
REMARK    8  A    between atoms: _17  and  _20
REMARK    9  A    between atoms: _20  and  _21
REMARK   10  A    between atoms: _27  and  _29
REMARK   11  A    between atoms: _29  and  _30
REMARK   12  A    between atoms: _29  and  _32
REMARK   13  A    between atoms: _32  and  _33
REMARK   14  A    between atoms: _43  and  _45
REMARK   15  A    between atoms: _45  and  _46
REMARK   16  A    between atoms: _45  and  _48
REMARK   17  A    between atoms: _48  and  _49
REMARK   18  A    between atoms: _49  and  _50
REMARK   19  A    between atoms: _55  and  _57
REMARK   20  A    between atoms: _57  and  _58
REMARK   21  A    between atoms: _60  and  _62
REMARK   22  A    between atoms: _62  and  _63
REMARK   23  A    between atoms: _62  and  _65
REMARK   24  A    between atoms: _65  and  _66
REMARK   25  A    between atoms: _69  and  _71
REMARK   26  A    between atoms: _71  and  _72
REMARK   27  A    between atoms: _75  and  _77
REMARK   28  A    between atoms: _77  and  _78
REMARK   29  A    between atoms: _77  and  _80
REMARK   30  A    between atoms: _80  and  _81
REMARK   31  A    between atoms: _81  and  _82
REMARK   32  A    between atoms: _85  and  _87
REMARK   33  A    between atoms: _87  and  _88
REMARK   34  A    between atoms: _87  and  _90
REMARK   35  A    between atoms: _90  and  _91
REMARK   36  A    between atoms: _96  and  _98
REMARK   37  A    between atoms: _98  and  _99
REMARK   38  A    between atoms: _98  and  _101
REMARK   39  A    between atoms: _101  and  _102
REMARK   40  A    between atoms: _105  and  _107
REMARK   41  A    between atoms: _107  and  _108
REMARK   42  A    between atoms: _111  and  _113
REMARK   43  A    between atoms: _113  and  _114
REMARK   44  A    between atoms: _116  and  _118
REMARK   45  A    between atoms: _118  and  _119
REMARK   46  A    between atoms: _122  and  _124
REMARK   47  A    between atoms: _124  and  _125
REMARK   48  A    between atoms: _124  and  _127
REMARK   49  A    between atoms: _127  and  _128
REMARK   50  A    between atoms: _131  and  _133
REMARK   51  A    between atoms: _133  and  _134
REMARK   52  A    between atoms: _133  and  _136
REMARK   53  A    between atoms: _136  and  _137
REMARK   54  A    between atoms: _139  and  _141
REMARK   55  A    between atoms: _141  and  _142
REMARK   56  A    between atoms: _145  and  _147
REMARK   57  A    between atoms: _147  and  _148
REMARK   58  A    between atoms: _147  and  _150
REMARK   59  A    between atoms: _150  and  _151
REMARK   60  A    between atoms: _156  and  _158
REMARK   61  A    between atoms: _158  and  _159
REMARK   62  A    between atoms: _158  and  _161
REMARK   63  A    between atoms: _161  and  _162
REMARK   64  A    between atoms: _162  and  _163
REMARK   65  A    between atoms: _166  and  _168
REMARK   66  A    between atoms: _168  and  _169
REMARK   67  A    between atoms: _168  and  _171
REMARK   68  A    between atoms: _171  and  _172
REMARK   69  A    between atoms: _177  and  _178
REMARK   70  A    between atoms: _180  and  _182
REMARK   71  A    between atoms: _182  and  _183
REMARK   72  A    between atoms: _182  and  _185
REMARK   73  A    between atoms: _185  and  _186
REMARK   74  A    between atoms: _191  and  _192
REMARK   75  A    between atoms: _195  and  _196
REMARK   76  A    between atoms: _201  and  _203
REMARK   77  A    between atoms: _203  and  _204
REMARK   78  A    between atoms: _206  and  _208
REMARK   79  A    between atoms: _208  and  _209
REMARK   80  A    between atoms: _208  and  _211
REMARK   81  A    between atoms: _211  and  _212
REMARK   82  A    between atoms: _218  and  _220
REMARK   83  A    between atoms: _220  and  _221
REMARK   84  A    between atoms: _220  and  _223
REMARK   85  A    between atoms: _223  and  _224
REMARK   86  A    between atoms: _224  and  _225
REMARK   87  A    between atoms: _225  and  _226
REMARK   88  A    between atoms: _235  and  _237
REMARK   89  A    between atoms: _237  and  _238
REMARK   90  A    between atoms: _237  and  _240
REMARK   91  A    between atoms: _240  and  _241
REMARK   92  A    between atoms: _244  and  _246
REMARK   93  A    between atoms: _246  and  _247
REMARK   94  A    between atoms: _246  and  _249
REMARK   95  A    between atoms: _249  and  _250
REMARK   96  A    between atoms: _253  and  _255
REMARK   97  A    between atoms: _255  and  _256
REMARK   98  A    between atoms: _255  and  _258
REMARK   99  A    between atoms: _261  and  _263
REMARK  100  A    between atoms: _263  and  _264
REMARK  101  A    between atoms: _263  and  _266
REMARK  102  A    between atoms: _266  and  _267
REMARK  103  A    between atoms: _270  and  _272
REMARK  104  A    between atoms: _272  and  _273
REMARK  105  A    between atoms: _272  and  _275
REMARK  106  A    between atoms: _275  and  _276
REMARK  107  A    between atoms: _282  and  _283
REMARK  108  A    between atoms: _288  and  _290
REMARK  109  A    between atoms: _290  and  _291
REMARK  110  A    between atoms: _290  and  _293
REMARK  111  A    between atoms: _293  and  _294
REMARK  112  A    between atoms: _296  and  _298
REMARK  113  A    between atoms: _298  and  _299
REMARK  114  A    between atoms: _298  and  _301
REMARK  115  A    between atoms: _301  and  _302
REMARK  116  A    between atoms: _308  and  _309
REMARK  117  A    between atoms: _314  and  _316
REMARK  118  A    between atoms: _316  and  _317
REMARK  119  A    between atoms: _316  and  _319
REMARK  120  A    between atoms: _319  and  _320
REMARK  121  A    between atoms: _323  and  _325
REMARK  122  A    between atoms: _325  and  _326
REMARK  123  A    between atoms: _325  and  _328
REMARK  124  A    between atoms: _328  and  _329
REMARK  125  A    between atoms: _329  and  _330
REMARK  126  A    between atoms: _333  and  _335
REMARK  127  A    between atoms: _335  and  _336
REMARK  128  A    between atoms: _335  and  _338
REMARK  129  A    between atoms: _338  and  _339
REMARK  130  A    between atoms: _342  and  _344
REMARK  131  A    between atoms: _344  and  _345
REMARK  132  A    between atoms: _344  and  _347
REMARK  133  A    between atoms: _347  and  _348
REMARK  134  A    between atoms: _353  and  _354
REMARK  135  A    between atoms: _356  and  _358
REMARK  136  A    between atoms: _358  and  _359
REMARK  137  A    between atoms: _358  and  _361
REMARK  138  A    between atoms: _364  and  _366
REMARK  139  A    between atoms: _366  and  _367
REMARK  140  A    between atoms: _366  and  _369
REMARK  141  A    between atoms: _369  and  _370
REMARK  142  A    between atoms: _375  and  _376
REMARK  143  A    between atoms: _378  and  _380
REMARK  144  A    between atoms: _380  and  _381
REMARK  145  A    between atoms: _380  and  _383
REMARK  146  A    between atoms: _383  and  _384
REMARK  147  A    between atoms: _386  and  _388
REMARK  148  A    between atoms: _388  and  _389
REMARK  149  A    between atoms: _388  and  _391
REMARK  150  A    between atoms: _391  and  _392
REMARK  151  A    between atoms: _395  and  _397
REMARK  152  A    between atoms: _397  and  _398
REMARK  153  A    between atoms: _397  and  _400
REMARK  154  A    between atoms: _400  and  _401
REMARK  155  A    between atoms: _403  and  _405
REMARK  156  A    between atoms: _405  and  _406
REMARK  157  A    between atoms: _405  and  _408
REMARK  158  A    between atoms: _408  and  _409
REMARK  159  A    between atoms: _409  and  _410
REMARK  160  A    between atoms: _410  and  _411
REMARK  161  A    between atoms: _411  and  _412
REMARK  162  A    between atoms: _416  and  _418
REMARK  163  A    between atoms: _418  and  _419
REMARK  164  A    between atoms: _418  and  _421
REMARK  165  A    between atoms: _421  and  _422
REMARK  166  A    between atoms: _426  and  _427
REMARK  167  A    between atoms: _432  and  _434
REMARK  168  A    between atoms: _434  and  _435
REMARK  169  A    between atoms: _437  and  _439
REMARK  170  A    between atoms: _439  and  _440
REMARK  171  A    between atoms: _439  and  _442
REMARK  172  A    between atoms: _442  and  _443
REMARK  173  A    between atoms: _449  and  _451
REMARK  174  A    between atoms: _451  and  _452
REMARK  175  A    between atoms: _451  and  _454
REMARK  176  A    between atoms: _454  and  _455
REMARK  177  A    between atoms: _455  and  _456
REMARK  178  A    between atoms: _456  and  _457
REMARK  179  A    between atoms: _466  and  _468
REMARK  180  A    between atoms: _468  and  _469
REMARK  181  A    between atoms: _468  and  _471
REMARK  182  A    between atoms: _474  and  _476
REMARK  183  A    between atoms: _476  and  _477
REMARK  184  A    between atoms: _479  and  _481
REMARK  185  A    between atoms: _481  and  _482
REMARK  186  A    between atoms: _485  and  _487
REMARK  187  A    between atoms: _487  and  _488
REMARK  188  A    between atoms: _487  and  _490
REMARK  189  A    between atoms: _490  and  _491
REMARK  190  A    between atoms: _494  and  _496
REMARK  191  A    between atoms: _496  and  _497
REMARK  192  A    between atoms: _496  and  _499
REMARK  193  A    between atoms: _499  and  _500
REMARK  194  A    between atoms: _506  and  _508
REMARK  195  A    between atoms: _508  and  _509
REMARK  196  A    between atoms: _508  and  _511
REMARK  197  A    between atoms: _511  and  _512
REMARK  198  A    between atoms: _514  and  _516
REMARK  199  A    between atoms: _516  and  _517
REMARK  200  A    between atoms: _516  and  _519
REMARK  201  A    between atoms: _521  and  _523
REMARK  202  A    between atoms: _523  and  _524
REMARK  203  A    between atoms: _523  and  _526
REMARK  204  A    between atoms: _526  and  _527
REMARK  205  A    between atoms: _527  and  _528
REMARK  206  A    between atoms: _528  and  _529
REMARK  207  A    between atoms: _538  and  _540
REMARK  208  A    between atoms: _540  and  _541
REMARK  209  A    between atoms: _540  and  _543
REMARK  210  A    between atoms: _545  and  _547
REMARK  211  A    between atoms: _547  and  _548
REMARK  212  A    between atoms: _547  and  _550
REMARK  213  A    between atoms: _550  and  _551
REMARK  214  A    between atoms: _556  and  _558
REMARK  215  A    between atoms: _558  and  _559
REMARK  216  A    between atoms: _558  and  _561
REMARK  217  A    between atoms: _561  and  _562
REMARK  218  A    between atoms: _565  and  _567
REMARK  219  A    between atoms: _567  and  _568
REMARK  220  A    between atoms: _567  and  _570
REMARK  221  A    between atoms: _570  and  _571
REMARK  222  A    between atoms: _571  and  _572
REMARK  223  A    between atoms: _577  and  _579
REMARK  224  A    between atoms: _579  and  _580
REMARK  225  A    between atoms: _579  and  _582
REMARK  226  A    between atoms: _582  and  _583
REMARK  227  A    between atoms: _586  and  _588
REMARK  228  A    between atoms: _588  and  _589
REMARK  229  A    between atoms: _588  and  _591
REMARK  230  A    between atoms: _591  and  _592
REMARK  231  A    between atoms: _597  and  _598
REMARK  232  A    between atoms: _600  and  _602
REMARK  233  A    between atoms: _602  and  _603
REMARK  234  A    between atoms: _602  and  _605
REMARK  235  A    between atoms: _605  and  _606
REMARK  236  A    between atoms: _608  and  _610
REMARK  237  A    between atoms: _610  and  _611
REMARK  238  A    between atoms: _610  and  _613
REMARK  239  A    between atoms: _613  and  _614
REMARK  240  A    between atoms: _620  and  _622
REMARK  241  A    between atoms: _622  and  _623
REMARK  242  A    between atoms: _622  and  _625
REMARK  243  A    between atoms: _625  and  _626
REMARK                            x       y       z     vdW  Elec       q    Type
REMARK                         _______ _______ _______ _____ _____    ______ ____
ROOT
ATOM      1  CA  ASP A   2      17.506  -4.280  32.511  0.00  0.00    +0.160 C 
ENDROOT
BRANCH   1   3
ATOM      2  C   GLN A   1      19.207  -4.768  30.816  0.00  0.00    +0.238 C 
ATOM      3  N   ASP A   2      18.267  -5.189  31.654  0.00  0.00    -0.297 N 
ATOM      4  H   ASP A   2      18.063  -6.208  31.703  0.00  0.00    +0.150 HD
ATOM      5  O   GLN A   1      19.522  -3.582  30.695  0.00  0.00    -0.274 OA
BRANCH   2   6
ATOM      6  CA  GLN A   1      19.901  -5.849  29.987  0.00  0.00    +0.145 C 
BRANCH   6   7
ATOM      7  N   GLN A   1      19.130  -7.087  29.947  0.00  0.00    -0.238 NA
ATOM      8  H   GLN A   1      18.110  -7.041  29.750  0.00  0.00    +0.142 HD
ENDBRANCH   6   7
BRANCH   6   9
ATOM      9  CB  GLN A   1      20.111  -5.341  28.563  0.00  0.00    +0.036 C 
BRANCH   9  10
ATOM     10  CG  GLN A   1      18.799  -5.152  27.803  0.00  0.00    +0.087 C 
BRANCH  10  11
ATOM     11  CD  GLN A   1      19.005  -4.689  26.379  0.00  0.00    +0.219 C 
ATOM     12  OE1 GLN A   1      19.738  -3.739  26.126  0.00  0.00    -0.275 OA
ATOM     13  NE2 GLN A   1      18.347  -5.358  25.436  0.00  0.00    -0.329 N 
ATOM     14 HE21 GLN A   1      17.736  -6.158  25.697  0.00  0.00    +0.145 HD
ATOM     15 HE22 GLN A   1      18.444  -5.081  24.438  0.00  0.00    +0.145 HD
ENDBRANCH  10  11
ENDBRANCH   9  10
ENDBRANCH   6   9
ENDBRANCH   2   6
ENDBRANCH   1   3
BRANCH   1  16
ATOM     16  C   ASP A   2      18.446  -3.529  33.457  0.00  0.00    +0.241 C 
ATOM     17  O   ASP A   2      19.250  -4.154  34.158  0.00  0.00    -0.273 OA
ATOM     18  N   TYR A   3      18.347  -2.201  33.495  0.00  0.00    -0.298 N 
ATOM     19  H   TYR A   3      17.644  -1.708  32.908  0.00  0.00    +0.150 HD
BRANCH  18  20
ATOM     20  CA  TYR A   3      19.237  -1.450  34.370  0.00  0.00    +0.141 C 
BRANCH  20  21
ATOM     21  C   TYR A   3      18.932  -1.538  35.861  0.00  0.00    +0.227 C 
ATOM     22  O   TYR A   3      19.620  -0.916  36.675  0.00  0.00    -0.286 OA
ENDBRANCH  20  21
BRANCH  20  23
ATOM     23  CB  TYR A   3      19.375   0.021  33.931  0.00  0.00    +0.054 C 
BRANCH  23  24
ATOM     24  CG  TYR A   3      18.105   0.818  33.711  0.00  0.00    -0.020 A 
ATOM     25  CD2 TYR A   3      16.927   0.521  34.394  0.00  0.00    -0.001 A 
ATOM     26  CE2 TYR A   3      15.787   1.318  34.243  0.00  0.00    +0.036 A 
ATOM     27  CZ  TYR A   3      15.829   2.420  33.399  0.00  0.00    +0.134 A 
ATOM     28  CE1 TYR A   3      16.984   2.730  32.709  0.00  0.00    +0.036 A 
ATOM     29  CD1 TYR A   3      18.113   1.928  32.866  0.00  0.00    -0.001 A 
BRANCH  27  30
ATOM     30  OH  TYR A   3      14.717   3.219  33.246  0.00  0.00    -0.506 OA
ATOM     31  HH  TYR A   3      14.442   3.222  32.295  0.00  0.00    +0.292 HD
ENDBRANCH  27  30
ENDBRANCH  23  24
ENDBRANCH  20  23
ENDBRANCH  18  20
ENDBRANCH   1  16
BRANCH   1  32
ATOM     32  CB  ASP A   2      16.490  -5.088  33.320  0.00  0.00    +0.143 C 
BRANCH  32  33
ATOM     33  CG  ASP A   2      15.422  -4.226  33.944  0.00  0.00    +0.367 C 
ATOM     34  OD2 ASP A   2      15.766  -3.287  34.686  0.00  0.00    -0.246 OA
ATOM     35  OD1 ASP A   2      14.229  -4.494  33.689  0.00  0.00    -0.246 OA
ENDBRANCH  32  33
ENDBRANCH   1  32
TORSDOF 14
REMARK  Name = ../refined-set-2016/1m7y/1m7y_pocket.pdb
REMARK  243 active torsions:
REMARK  status: ('A' for Active; 'I' for Inactive)
REMARK    1  A    between atoms: _1  and  _3
REMARK    2  A    between atoms: _3  and  _4
REMARK    3  A    between atoms: _3  and  _6
REMARK    4  A    between atoms: _6  and  _7
REMARK    5  A    between atoms: _12  and  _13
REMARK    6  A    between atoms: _15  and  _17
REMARK    7  A    between atoms: _17  and  _18
REMARK    8  A    between atoms: _17  and  _20
REMARK    9  A    between atoms: _20  and  _21
REMARK   10  A    between atoms: _27  and  _29
REMARK   11  A    between atoms: _29  and  _30
REMARK   12  A    between atoms: _29  and  _32
REMARK   13  A    between atoms: _32  and  _33
REMARK   14  A    between atoms: _43  and  _45
REMARK   15  A    between atoms: _45  and  _46
REMARK   16  A    between atoms: _45  and  _48
REMARK   17  A    between atoms: _48  and  _49
REMARK   18  A    between atoms: _49  and  _50
REMARK   19  A    between atoms: _55  and  _57
REMARK   20  A    between atoms: _57  and  _58
REMARK   21  A    between atoms: _60  and  _62
REMARK   22  A    between atoms: _62  and  _63
REMARK   23  A    between atoms: _62  and  _65
REMARK   24  A    between atoms: _65  and  _66
REMARK   25  A    between atoms: _69  and  _71
REMARK   26  A    between atoms: _71  and  _72
REMARK   27  A    between atoms: _75  and  _77
REMARK   28  A    between atoms: _77  and  _78
REMARK   29  A    between atoms: _77  and  _80
REMARK   30  A    between atoms: _80  and  _81
REMARK   31  A    between atoms: _81  and  _82
REMARK   32  A    between atoms: _85  and  _87
REMARK   33  A    between atoms: _87  and  _88
REMARK   34  A    between atoms: _87  and  _90
REMARK   35  A    between atoms: _90  and  _91
REMARK   36  A    between atoms: _96  and  _98
REMARK   37  A    between atoms: _98  and  _99
REMARK   38  A    between atoms: _98  and  _101
REMARK   39  A    between atoms: _101  and  _102
REMARK   40  A    between atoms: _105  and  _107
REMARK   41  A    between atoms: _107  and  _108
REMARK   42  A    between atoms: _111  and  _113
REMARK   43  A    between atoms: _113  and  _114
REMARK   44  A    between atoms: _116  and  _118
REMARK   45  A    between atoms: _118  and  _119
REMARK   46  A    between atoms: _122  and  _124
REMARK   47  A    between atoms: _124  and  _125
REMARK   48  A    between atoms: _124  and  _127
REMARK   49  A    between atoms: _127  and  _128
REMARK   50  A    between atoms: _131  and  _133
REMARK   51  A    between atoms: _133  and  _134
REMARK   52  A    between atoms: _133  and  _136
REMARK   53  A    between atoms: _136  and  _137
REMARK   54  A    between atoms: _139  and  _141
REMARK   55  A    between atoms: _141  and  _142
REMARK   56  A    between atoms: _145  and  _147
REMARK   57  A    between atoms: _147  and  _148
REMARK   58  A    between atoms: _147  and  _150
REMARK   59  A    between atoms: _150  and  _151
REMARK   60  A    between atoms: _156  and  _158
REMARK   61  A    between atoms: _158  and  _159
REMARK   62  A    between atoms: _158  and  _161
REMARK   63  A    between atoms: _161  and  _162
REMARK   64  A    between atoms: _162  and  _163
REMARK   65  A    between atoms: _166  and  _168
REMARK   66  A    between atoms: _168  and  _169
REMARK   67  A    between atoms: _168  and  _171
REMARK   68  A    between atoms: _171  and  _172
REMARK   69  A    between atoms: _177  and  _178
REMARK   70  A    between atoms: _180  and  _182
REMARK   71  A    between atoms: _182  and  _183
REMARK   72  A    between atoms: _182  and  _185
REMARK   73  A    between atoms: _185  and  _186
REMARK   74  A    between atoms: _191  and  _192
REMARK   75  A    between atoms: _195  and  _196
REMARK   76  A    between atoms: _201  and  _203
REMARK   77  A    between atoms: _203  and  _204
REMARK   78  A    between atoms: _206  and  _208
REMARK   79  A    between atoms: _208  and  _209
REMARK   80  A    between atoms: _208  and  _211
REMARK   81  A    between atoms: _211  and  _212
REMARK   82  A    between atoms: _218  and  _220
REMARK   83  A    between atoms: _220  and  _221
REMARK   84  A    between atoms: _220  and  _223
REMARK   85  A    between atoms: _223  and  _224
REMARK   86  A    between atoms: _224  and  _225
REMARK   87  A    between atoms: _225  and  _226
REMARK   88  A    between atoms: _235  and  _237
REMARK   89  A    between atoms: _237  and  _238
REMARK   90  A    between atoms: _237  and  _240
REMARK   91  A    between atoms: _240  and  _241
REMARK   92  A    between atoms: _244  and  _246
REMARK   93  A    between atoms: _246  and  _247
REMARK   94  A    between atoms: _246  and  _249
REMARK   95  A    between atoms: _249  and  _250
REMARK   96  A    between atoms: _253  and  _255
REMARK   97  A    between atoms: _255  and  _256
REMARK   98  A    between atoms: _255  and  _258
REMARK   99  A    between atoms: _261  and  _263
REMARK  100  A    between atoms: _263  and  _264
REMARK  101  A    between atoms: _263  and  _266
REMARK  102  A    between atoms: _266  and  _267
REMARK  103  A    between atoms: _270  and  _272
REMARK  104  A    between atoms: _272  and  _273
REMARK  105  A    between atoms: _272  and  _275
REMARK  106  A    between atoms: _275  and  _276
REMARK  107  A    between atoms: _282  and  _283
REMARK  108  A    between atoms: _288  and  _290
REMARK  109  A    between atoms: _290  and  _291
REMARK  110  A    between atoms: _290  and  _293
REMARK  111  A    between atoms: _293  and  _294
REMARK  112  A    between atoms: _296  and  _298
REMARK  113  A    between atoms: _298  and  _299
REMARK  114  A    between atoms: _298  and  _301
REMARK  115  A    between atoms: _301  and  _302
REMARK  116  A    between atoms: _308  and  _309
REMARK  117  A    between atoms: _314  and  _316
REMARK  118  A    between atoms: _316  and  _317
REMARK  119  A    between atoms: _316  and  _319
REMARK  120  A    between atoms: _319  and  _320
REMARK  121  A    between atoms: _323  and  _325
REMARK  122  A    between atoms: _325  and  _326
REMARK  123  A    between atoms: _325  and  _328
REMARK  124  A    between atoms: _328  and  _329
REMARK  125  A    between atoms: _329  and  _330
REMARK  126  A    between atoms: _333  and  _335
REMARK  127  A    between atoms: _335  and  _336
REMARK  128  A    between atoms: _335  and  _338
REMARK  129  A    between atoms: _338  and  _339
REMARK  130  A    between atoms: _342  and  _344
REMARK  131  A    between atoms: _344  and  _345
REMARK  132  A    between atoms: _344  and  _347
REMARK  133  A    between atoms: _347  and  _348
REMARK  134  A    between atoms: _353  and  _354
REMARK  135  A    between atoms: _356  and  _358
REMARK  136  A    between atoms: _358  and  _359
REMARK  137  A    between atoms: _358  and  _361
REMARK  138  A    between atoms: _364  and  _366
REMARK  139  A    between atoms: _366  and  _367
REMARK  140  A    between atoms: _366  and  _369
REMARK  141  A    between atoms: _369  and  _370
REMARK  142  A    between atoms: _375  and  _376
REMARK  143  A    between atoms: _378  and  _380
REMARK  144  A    between atoms: _380  and  _381
REMARK  145  A    between atoms: _380  and  _383
REMARK  146  A    between atoms: _383  and  _384
REMARK  147  A    between atoms: _386  and  _388
REMARK  148  A    between atoms: _388  and  _389
REMARK  149  A    between atoms: _388  and  _391
REMARK  150  A    between atoms: _391  and  _392
REMARK  151  A    between atoms: _395  and  _397
REMARK  152  A    between atoms: _397  and  _398
REMARK  153  A    between atoms: _397  and  _400
REMARK  154  A    between atoms: _400  and  _401
REMARK  155  A    between atoms: _403  and  _405
REMARK  156  A    between atoms: _405  and  _406
REMARK  157  A    between atoms: _405  and  _408
REMARK  158  A    between atoms: _408  and  _409
REMARK  159  A    between atoms: _409  and  _410
REMARK  160  A    between atoms: _410  and  _411
REMARK  161  A    between atoms: _411  and  _412
REMARK  162  A    between atoms: _416  and  _418
REMARK  163  A    between atoms: _418  and  _419
REMARK  164  A    between atoms: _418  and  _421
REMARK  165  A    between atoms: _421  and  _422
REMARK  166  A    between atoms: _426  and  _427
REMARK  167  A    between atoms: _432  and  _434
REMARK  168  A    between atoms: _434  and  _435
REMARK  169  A    between atoms: _437  and  _439
REMARK  170  A    between atoms: _439  and  _440
REMARK  171  A    between atoms: _439  and  _442
REMARK  172  A    between atoms: _442  and  _443
REMARK  173  A    between atoms: _449  and  _451
REMARK  174  A    between atoms: _451  and  _452
REMARK  175  A    between atoms: _451  and  _454
REMARK  176  A    between atoms: _454  and  _455
REMARK  177  A    between atoms: _455  and  _456
REMARK  178  A    between atoms: _456  and  _457
REMARK  179  A    between atoms: _466  and  _468
REMARK  180  A    between atoms: _468  and  _469
REMARK  181  A    between atoms: _468  and  _471
REMARK  182  A    between atoms: _474  and  _476
REMARK  183  A    between atoms: _476  and  _477
REMARK  184  A    between atoms: _479  and  _481
REMARK  185  A    between atoms: _481  and  _482
REMARK  186  A    between atoms: _485  and  _487
REMARK  187  A    between atoms: _487  and  _488
REMARK  188  A    between atoms: _487  and  _490
REMARK  189  A    between atoms: _490  and  _491
REMARK  190  A    between atoms: _494  and  _496
REMARK  191  A    between atoms: _496  and  _497
REMARK  192  A    between atoms: _496  and  _499
REMARK  193  A    between atoms: _499  and  _500
REMARK  194  A    between atoms: _506  and  _508
REMARK  195  A    between atoms: _508  and  _509
REMARK  196  A    between atoms: _508  and  _511
REMARK  197  A    between atoms: _511  and  _512
REMARK  198  A    between atoms: _514  and  _516
REMARK  199  A    between atoms: _516  and  _517
REMARK  200  A    between atoms: _516  and  _519
REMARK  201  A    between atoms: _521  and  _523
REMARK  202  A    between atoms: _523  and  _524
REMARK  203  A    between atoms: _523  and  _526
REMARK  204  A    between atoms: _526  and  _527
REMARK  205  A    between atoms: _527  and  _528
REMARK  206  A    between atoms: _528  and  _529
REMARK  207  A    between atoms: _538  and  _540
REMARK  208  A    between atoms: _540  and  _541
REMARK  209  A    between atoms: _540  and  _543
REMARK  210  A    between atoms: _545  and  _547
REMARK  211  A    between atoms: _547  and  _548
REMARK  212  A    between atoms: _547  and  _550
REMARK  213  A    between atoms: _550  and  _551
REMARK  214  A    between atoms: _556  and  _558
REMARK  215  A    between atoms: _558  and  _559
REMARK  216  A    between atoms: _558  and  _561
REMARK  217  A    between atoms: _561  and  _562
REMARK  218  A    between atoms: _565  and  _567
REMARK  219  A    between atoms: _567  and  _568
REMARK  220  A    between atoms: _567  and  _570
REMARK  221  A    between atoms: _570  and  _571
REMARK  222  A    between atoms: _571  and  _572
REMARK  223  A    between atoms: _577  and  _579
REMARK  224  A    between atoms: _579  and  _580
REMARK  225  A    between atoms: _579  and  _582
REMARK  226  A    between atoms: _582  and  _583
REMARK  227  A    between atoms: _586  and  _588
REMARK  228  A    between atoms: _588  and  _589
REMARK  229  A    between atoms: _588  and  _591
REMARK  230  A    between atoms: _591  and  _592
REMARK  231  A    between atoms: _597  and  _598
REMARK  232  A    between atoms: _600  and  _602
REMARK  233  A    between atoms: _602  and  _603
REMARK  234  A    between atoms: _602  and  _605
REMARK  235  A    between atoms: _605  and  _606
REMARK  236  A    between atoms: _608  and  _610
REMARK  237  A    between atoms: _610  and  _611
REMARK  238  A    between atoms: _610  and  _613
REMARK  239  A    between atoms: _613  and  _614
REMARK  240  A    between atoms: _620  and  _622
REMARK  241  A    between atoms: _622  and  _623
REMARK  242  A    between atoms: _622  and  _625
REMARK  243  A    between atoms: _625  and  _626
REMARK                            x       y       z     vdW  Elec       q    Type
REMARK                         _______ _______ _______ _____ _____    ______ ____
ROOT
ATOM      1  C   SER A   1      24.488   2.242  30.738  0.00  0.00    +0.241 C 
ATOM      2  N   PHE A   2      25.351   3.153  31.181  0.00  0.00    -0.298 N 
ATOM      3  H   PHE A   2      25.084   3.755  31.986  0.00  0.00    +0.150 HD
ATOM      4  O   SER A   1      24.741   1.487  29.805  0.00  0.00    -0.274 OA
ENDROOT
BRANCH   1   5
ATOM      5  CA  SER A   1      23.136   2.176  31.449  0.00  0.00    +0.174 C 
BRANCH   5   6
ATOM      6  N   SER A   1      23.242   2.599  32.843  0.00  0.00    -0.236 NA
ATOM      7  H   SER A   1      22.618   3.352  33.196  0.00  0.00    +0.142 HD
ENDBRANCH   5   6
BRANCH   5   8
ATOM      8  CB  SER A   1      22.144   3.066  30.697  0.00  0.00    +0.163 C 
BRANCH   8   9
ATOM      9  OG  SER A   1      20.818   2.860  31.150  0.00  0.00    -0.380 OA
ATOM     10  H   SER A   1      20.763   3.074  32.115  0.00  0.00    +0.211 HD
ENDBRANCH   8   9
ENDBRANCH   5   8
ENDBRANCH   1   5
BRANCH   2  11
ATOM     11  CA  PHE A   2      26.663   3.329  30.565  0.00  0.00    +0.141 C 
BRANCH  11  12
ATOM     12  C   PHE A   2      27.713   2.355  31.089  0.00  0.00    +0.227 C 
ATOM     13  O   PHE A   2      28.832   2.303  30.576  0.00  0.00    -0.286 OA
ENDBRANCH  11  12
BRANCH  11  14
ATOM     14  CB  PHE A   2      27.151   4.761  30.784  0.00  0.00    +0.054 C 
BRANCH  14  15
ATOM     15  CG  PHE A   2      26.206   5.802  30.265  0.00  0.00    -0.020 A 
ATOM     16  CD2 PHE A   2      25.507   6.626  31.140  0.00  0.00    -0.004 A 
ATOM     17  CE2 PHE A   2      24.619   7.587  30.660  0.00  0.00    -0.000 A 
ATOM     18  CZ  PHE A   2      24.428   7.732  29.285  0.00  0.00    -0.000 A 
ATOM     19  CE1 PHE A   2      25.124   6.913  28.403  0.00  0.00    -0.000 A 
ATOM     20  CD1 PHE A   2      26.008   5.955  28.896  0.00  0.00    -0.004 A 
ENDBRANCH  14  15
ENDBRANCH  11  14
ENDBRANCH   2  11
TORSDOF 8
REMARK  Name = ../refined-set-2016/1m7y/1m7y_pocket.pdb
REMARK  243 active torsions:
REMARK  status: ('A' for Active; 'I' for Inactive)
REMARK    1  A    between atoms: _1  and  _3
REMARK    2  A    between atoms: _3  and  _4
REMARK    3  A    between atoms: _3  and  _6
REMARK    4  A    between atoms: _6  and  _7
REMARK    5  A    between atoms: _12  and  _13
REMARK    6  A    between atoms: _15  and  _17
REMARK    7  A    between atoms: _17  and  _18
REMARK    8  A    between atoms: _17  and  _20
REMARK    9  A    between atoms: _20  and  _21
REMARK   10  A    between atoms: _27  and  _29
REMARK   11  A    between atoms: _29  and  _30
REMARK   12  A    between atoms: _29  and  _32
REMARK   13  A    between atoms: _32  and  _33
REMARK   14  A    between atoms: _43  and  _45
REMARK   15  A    between atoms: _45  and  _46
REMARK   16  A    between atoms: _45  and  _48
REMARK   17  A    between atoms: _48  and  _49
REMARK   18  A    between atoms: _49  and  _50
REMARK   19  A    between atoms: _55  and  _57
REMARK   20  A    between atoms: _57  and  _58
REMARK   21  A    between atoms: _60  and  _62
REMARK   22  A    between atoms: _62  and  _63
REMARK   23  A    between atoms: _62  and  _65
REMARK   24  A    between atoms: _65  and  _66
REMARK   25  A    between atoms: _69  and  _71
REMARK   26  A    between atoms: _71  and  _72
REMARK   27  A    between atoms: _75  and  _77
REMARK   28  A    between atoms: _77  and  _78
REMARK   29  A    between atoms: _77  and  _80
REMARK   30  A    between atoms: _80  and  _81
REMARK   31  A    between atoms: _81  and  _82
REMARK   32  A    between atoms: _85  and  _87
REMARK   33  A    between atoms: _87  and  _88
REMARK   34  A    between atoms: _87  and  _90
REMARK   35  A    between atoms: _90  and  _91
REMARK   36  A    between atoms: _96  and  _98
REMARK   37  A    between atoms: _98  and  _99
REMARK   38  A    between atoms: _98  and  _101
REMARK   39  A    between atoms: _101  and  _102
REMARK   40  A    between atoms: _105  and  _107
REMARK   41  A    between atoms: _107  and  _108
REMARK   42  A    between atoms: _111  and  _113
REMARK   43  A    between atoms: _113  and  _114
REMARK   44  A    between atoms: _116  and  _118
REMARK   45  A    between atoms: _118  and  _119
REMARK   46  A    between atoms: _122  and  _124
REMARK   47  A    between atoms: _124  and  _125
REMARK   48  A    between atoms: _124  and  _127
REMARK   49  A    between atoms: _127  and  _128
REMARK   50  A    between atoms: _131  and  _133
REMARK   51  A    between atoms: _133  and  _134
REMARK   52  A    between atoms: _133  and  _136
REMARK   53  A    between atoms: _136  and  _137
REMARK   54  A    between atoms: _139  and  _141
REMARK   55  A    between atoms: _141  and  _142
REMARK   56  A    between atoms: _145  and  _147
REMARK   57  A    between atoms: _147  and  _148
REMARK   58  A    between atoms: _147  and  _150
REMARK   59  A    between atoms: _150  and  _151
REMARK   60  A    between atoms: _156  and  _158
REMARK   61  A    between atoms: _158  and  _159
REMARK   62  A    between atoms: _158  and  _161
REMARK   63  A    between atoms: _161  and  _162
REMARK   64  A    between atoms: _162  and  _163
REMARK   65  A    between atoms: _166  and  _168
REMARK   66  A    between atoms: _168  and  _169
REMARK   67  A    between atoms: _168  and  _171
REMARK   68  A    between atoms: _171  and  _172
REMARK   69  A    between atoms: _177  and  _178
REMARK   70  A    between atoms: _180  and  _182
REMARK   71  A    between atoms: _182  and  _183
REMARK   72  A    between atoms: _182  and  _185
REMARK   73  A    between atoms: _185  and  _186
REMARK   74  A    between atoms: _191  and  _192
REMARK   75  A    between atoms: _195  and  _196
REMARK   76  A    between atoms: _201  and  _203
REMARK   77  A    between atoms: _203  and  _204
REMARK   78  A    between atoms: _206  and  _208
REMARK   79  A    between atoms: _208  and  _209
REMARK   80  A    between atoms: _208  and  _211
REMARK   81  A    between atoms: _211  and  _212
REMARK   82  A    between atoms: _218  and  _220
REMARK   83  A    between atoms: _220  and  _221
REMARK   84  A    between atoms: _220  and  _223
REMARK   85  A    between atoms: _223  and  _224
REMARK   86  A    between atoms: _224  and  _225
REMARK   87  A    between atoms: _225  and  _226
REMARK   88  A    between atoms: _235  and  _237
REMARK   89  A    between atoms: _237  and  _238
REMARK   90  A    between atoms: _237  and  _240
REMARK   91  A    between atoms: _240  and  _241
REMARK   92  A    between atoms: _244  and  _246
REMARK   93  A    between atoms: _246  and  _247
REMARK   94  A    between atoms: _246  and  _249
REMARK   95  A    between atoms: _249  and  _250
REMARK   96  A    between atoms: _253  and  _255
REMARK   97  A    between atoms: _255  and  _256
REMARK   98  A    between atoms: _255  and  _258
REMARK   99  A    between atoms: _261  and  _263
REMARK  100  A    between atoms: _263  and  _264
REMARK  101  A    between atoms: _263  and  _266
REMARK  102  A    between atoms: _266  and  _267
REMARK  103  A    between atoms: _270  and  _272
REMARK  104  A    between atoms: _272  and  _273
REMARK  105  A    between atoms: _272  and  _275
REMARK  106  A    between atoms: _275  and  _276
REMARK  107  A    between atoms: _282  and  _283
REMARK  108  A    between atoms: _288  and  _290
REMARK  109  A    between atoms: _290  and  _291
REMARK  110  A    between atoms: _290  and  _293
REMARK  111  A    between atoms: _293  and  _294
REMARK  112  A    between atoms: _296  and  _298
REMARK  113  A    between atoms: _298  and  _299
REMARK  114  A    between atoms: _298  and  _301
REMARK  115  A    between atoms: _301  and  _302
REMARK  116  A    between atoms: _308  and  _309
REMARK  117  A    between atoms: _314  and  _316
REMARK  118  A    between atoms: _316  and  _317
REMARK  119  A    between atoms: _316  and  _319
REMARK  120  A    between atoms: _319  and  _320
REMARK  121  A    between atoms: _323  and  _325
REMARK  122  A    between atoms: _325  and  _326
REMARK  123  A    between atoms: _325  and  _328
REMARK  124  A    between atoms: _328  and  _329
REMARK  125  A    between atoms: _329  and  _330
REMARK  126  A    between atoms: _333  and  _335
REMARK  127  A    between atoms: _335  and  _336
REMARK  128  A    between atoms: _335  and  _338
REMARK  129  A    between atoms: _338  and  _339
REMARK  130  A    between atoms: _342  and  _344
REMARK  131  A    between atoms: _344  and  _345
REMARK  132  A    between atoms: _344  and  _347
REMARK  133  A    between atoms: _347  and  _348
REMARK  134  A    between atoms: _353  and  _354
REMARK  135  A    between atoms: _356  and  _358
REMARK  136  A    between atoms: _358  and  _359
REMARK  137  A    between atoms: _358  and  _361
REMARK  138  A    between atoms: _364  and  _366
REMARK  139  A    between atoms: _366  and  _367
REMARK  140  A    between atoms: _366  and  _369
REMARK  141  A    between atoms: _369  and  _370
REMARK  142  A    between atoms: _375  and  _376
REMARK  143  A    between atoms: _378  and  _380
REMARK  144  A    between atoms: _380  and  _381
REMARK  145  A    between atoms: _380  and  _383
REMARK  146  A    between atoms: _383  and  _384
REMARK  147  A    between atoms: _386  and  _388
REMARK  148  A    between atoms: _388  and  _389
REMARK  149  A    between atoms: _388  and  _391
REMARK  150  A    between atoms: _391  and  _392
REMARK  151  A    between atoms: _395  and  _397
REMARK  152  A    between atoms: _397  and  _398
REMARK  153  A    between atoms: _397  and  _400
REMARK  154  A    between atoms: _400  and  _401
REMARK  155  A    between atoms: _403  and  _405
REMARK  156  A    between atoms: _405  and  _406
REMARK  157  A    between atoms: _405  and  _408
REMARK  158  A    between atoms: _408  and  _409
REMARK  159  A    between atoms: _409  and  _410
REMARK  160  A    between atoms: _410  and  _411
REMARK  161  A    between atoms: _411  and  _412
REMARK  162  A    between atoms: _416  and  _418
REMARK  163  A    between atoms: _418  and  _419
REMARK  164  A    between atoms: _418  and  _421
REMARK  165  A    between atoms: _421  and  _422
REMARK  166  A    between atoms: _426  and  _427
REMARK  167  A    between atoms: _432  and  _434
REMARK  168  A    between atoms: _434  and  _435
REMARK  169  A    between atoms: _437  and  _439
REMARK  170  A    between atoms: _439  and  _440
REMARK  171  A    between atoms: _439  and  _442
REMARK  172  A    between atoms: _442  and  _443
REMARK  173  A    between atoms: _449  and  _451
REMARK  174  A    between atoms: _451  and  _452
REMARK  175  A    between atoms: _451  and  _454
REMARK  176  A    between atoms: _454  and  _455
REMARK  177  A    between atoms: _455  and  _456
REMARK  178  A    between atoms: _456  and  _457
REMARK  179  A    between atoms: _466  and  _468
REMARK  180  A    between atoms: _468  and  _469
REMARK  181  A    between atoms: _468  and  _471
REMARK  182  A    between atoms: _474  and  _476
REMARK  183  A    between atoms: _476  and  _477
REMARK  184  A    between atoms: _479  and  _481
REMARK  185  A    between atoms: _481  and  _482
REMARK  186  A    between atoms: _485  and  _487
REMARK  187  A    between atoms: _487  and  _488
REMARK  188  A    between atoms: _487  and  _490
REMARK  189  A    between atoms: _490  and  _491
REMARK  190  A    between atoms: _494  and  _496
REMARK  191  A    between atoms: _496  and  _497
REMARK  192  A    between atoms: _496  and  _499
REMARK  193  A    between atoms: _499  and  _500
REMARK  194  A    between atoms: _506  and  _508
REMARK  195  A    between atoms: _508  and  _509
REMARK  196  A    between atoms: _508  and  _511
REMARK  197  A    between atoms: _511  and  _512
REMARK  198  A    between atoms: _514  and  _516
REMARK  199  A    between atoms: _516  and  _517
REMARK  200  A    between atoms: _516  and  _519
REMARK  201  A    between atoms: _521  and  _523
REMARK  202  A    between atoms: _523  and  _524
REMARK  203  A    between atoms: _523  and  _526
REMARK  204  A    between atoms: _526  and  _527
REMARK  205  A    between atoms: _527  and  _528
REMARK  206  A    between atoms: _528  and  _529
REMARK  207  A    between atoms: _538  and  _540
REMARK  208  A    between atoms: _540  and  _541
REMARK  209  A    between atoms: _540  and  _543
REMARK  210  A    between atoms: _545  and  _547
REMARK  211  A    between atoms: _547  and  _548
REMARK  212  A    between atoms: _547  and  _550
REMARK  213  A    between atoms: _550  and  _551
REMARK  214  A    between atoms: _556  and  _558
REMARK  215  A    between atoms: _558  and  _559
REMARK  216  A    between atoms: _558  and  _561
REMARK  217  A    between atoms: _561  and  _562
REMARK  218  A    between atoms: _565  and  _567
REMARK  219  A    between atoms: _567  and  _568
REMARK  220  A    between atoms: _567  and  _570
REMARK  221  A    between atoms: _570  and  _571
REMARK  222  A    between atoms: _571  and  _572
REMARK  223  A    between atoms: _577  and  _579
REMARK  224  A    between atoms: _579  and  _580
REMARK  225  A    between atoms: _579  and  _582
REMARK  226  A    between atoms: _582  and  _583
REMARK  227  A    between atoms: _586  and  _588
REMARK  228  A    between atoms: _588  and  _589
REMARK  229  A    between atoms: _588  and  _591
REMARK  230  A    between atoms: _591  and  _592
REMARK  231  A    between atoms: _597  and  _598
REMARK  232  A    between atoms: _600  and  _602
REMARK  233  A    between atoms: _602  and  _603
REMARK  234  A    between atoms: _602  and  _605
REMARK  235  A    between atoms: _605  and  _606
REMARK  236  A    between atoms: _608  and  _610
REMARK  237  A    between atoms: _610  and  _611
REMARK  238  A    between atoms: _610  and  _613
REMARK  239  A    between atoms: _613  and  _614
REMARK  240  A    between atoms: _620  and  _622
REMARK  241  A    between atoms: _622  and  _623
REMARK  242  A    between atoms: _622  and  _625
REMARK  243  A    between atoms: _625  and  _626
REMARK                            x       y       z     vdW  Elec       q    Type
REMARK                         _______ _______ _______ _____ _____    ______ ____
ROOT
ATOM      1  CA  LEU A   1      26.000  -2.327  33.284  0.00  0.00    +0.133 C 
ENDROOT
BRANCH   1   2
ATOM      2  N   LEU A   1      26.746  -1.222  32.701  0.00  0.00    -0.239 NA
ATOM      3  H   LEU A   1      26.633  -1.012  31.689  0.00  0.00    +0.142 HD
ENDBRANCH   1   2
BRANCH   1   4
ATOM      4  C   LEU A   1      26.913  -3.519  33.500  0.00  0.00    +0.224 C 
ATOM      5  O   LEU A   1      27.956  -3.647  32.853  0.00  0.00    -0.287 OA
ENDBRANCH   1   4
BRANCH   1   6
ATOM      6  CB  LEU A   1      24.855  -2.733  32.357  0.00  0.00    +0.025 C 
BRANCH   6   7
ATOM      7  CG  LEU A   1      23.755  -1.692  32.142  0.00  0.00    +0.002 C 
ATOM      8  CD2 LEU A   1      23.032  -1.446  33.451  0.00  0.00    +0.000 C 
ATOM      9  CD1 LEU A   1      22.788  -2.188  31.073  0.00  0.00    +0.000 C 
ENDBRANCH   6   7
ENDBRANCH   1   6
TORSDOF 4
REMARK  Name = ../refined-set-2016/1m7y/1m7y_pocket.pdb
REMARK  243 active torsions:
REMARK  status: ('A' for Active; 'I' for Inactive)
REMARK    1  A    between atoms: _1  and  _3
REMARK    2  A    between atoms: _3  and  _4
REMARK    3  A    between atoms: _3  and  _6
REMARK    4  A    between atoms: _6  and  _7
REMARK    5  A    between atoms: _12  and  _13
REMARK    6  A    between atoms: _15  and  _17
REMARK    7  A    between atoms: _17  and  _18
REMARK    8  A    between atoms: _17  and  _20
REMARK    9  A    between atoms: _20  and  _21
REMARK   10  A    between atoms: _27  and  _29
REMARK   11  A    between atoms: _29  and  _30
REMARK   12  A    between atoms: _29  and  _32
REMARK   13  A    between atoms: _32  and  _33
REMARK   14  A    between atoms: _43  and  _45
REMARK   15  A    between atoms: _45  and  _46
REMARK   16  A    between atoms: _45  and  _48
REMARK   17  A    between atoms: _48  and  _49
REMARK   18  A    between atoms: _49  and  _50
REMARK   19  A    between atoms: _55  and  _57
REMARK   20  A    between atoms: _57  and  _58
REMARK   21  A    between atoms: _60  and  _62
REMARK   22  A    between atoms: _62  and  _63
REMARK   23  A    between atoms: _62  and  _65
REMARK   24  A    between atoms: _65  and  _66
REMARK   25  A    between atoms: _69  and  _71
REMARK   26  A    between atoms: _71  and  _72
REMARK   27  A    between atoms: _75  and  _77
REMARK   28  A    between atoms: _77  and  _78
REMARK   29  A    between atoms: _77  and  _80
REMARK   30  A    between atoms: _80  and  _81
REMARK   31  A    between atoms: _81  and  _82
REMARK   32  A    between atoms: _85  and  _87
REMARK   33  A    between atoms: _87  and  _88
REMARK   34  A    between atoms: _87  and  _90
REMARK   35  A    between atoms: _90  and  _91
REMARK   36  A    between atoms: _96  and  _98
REMARK   37  A    between atoms: _98  and  _99
REMARK   38  A    between atoms: _98  and  _101
REMARK   39  A    between atoms: _101  and  _102
REMARK   40  A    between atoms: _105  and  _107
REMARK   41  A    between atoms: _107  and  _108
REMARK   42  A    between atoms: _111  and  _113
REMARK   43  A    between atoms: _113  and  _114
REMARK   44  A    between atoms: _116  and  _118
REMARK   45  A    between atoms: _118  and  _119
REMARK   46  A    between atoms: _122  and  _124
REMARK   47  A    between atoms: _124  and  _125
REMARK   48  A    between atoms: _124  and  _127
REMARK   49  A    between atoms: _127  and  _128
REMARK   50  A    between atoms: _131  and  _133
REMARK   51  A    between atoms: _133  and  _134
REMARK   52  A    between atoms: _133  and  _136
REMARK   53  A    between atoms: _136  and  _137
REMARK   54  A    between atoms: _139  and  _141
REMARK   55  A    between atoms: _141  and  _142
REMARK   56  A    between atoms: _145  and  _147
REMARK   57  A    between atoms: _147  and  _148
REMARK   58  A    between atoms: _147  and  _150
REMARK   59  A    between atoms: _150  and  _151
REMARK   60  A    between atoms: _156  and  _158
REMARK   61  A    between atoms: _158  and  _159
REMARK   62  A    between atoms: _158  and  _161
REMARK   63  A    between atoms: _161  and  _162
REMARK   64  A    between atoms: _162  and  _163
REMARK   65  A    between atoms: _166  and  _168
REMARK   66  A    between atoms: _168  and  _169
REMARK   67  A    between atoms: _168  and  _171
REMARK   68  A    between atoms: _171  and  _172
REMARK   69  A    between atoms: _177  and  _178
REMARK   70  A    between atoms: _180  and  _182
REMARK   71  A    between atoms: _182  and  _183
REMARK   72  A    between atoms: _182  and  _185
REMARK   73  A    between atoms: _185  and  _186
REMARK   74  A    between atoms: _191  and  _192
REMARK   75  A    between atoms: _195  and  _196
REMARK   76  A    between atoms: _201  and  _203
REMARK   77  A    between atoms: _203  and  _204
REMARK   78  A    between atoms: _206  and  _208
REMARK   79  A    between atoms: _208  and  _209
REMARK   80  A    between atoms: _208  and  _211
REMARK   81  A    between atoms: _211  and  _212
REMARK   82  A    between atoms: _218  and  _220
REMARK   83  A    between atoms: _220  and  _221
REMARK   84  A    between atoms: _220  and  _223
REMARK   85  A    between atoms: _223  and  _224
REMARK   86  A    between atoms: _224  and  _225
REMARK   87  A    between atoms: _225  and  _226
REMARK   88  A    between atoms: _235  and  _237
REMARK   89  A    between atoms: _237  and  _238
REMARK   90  A    between atoms: _237  and  _240
REMARK   91  A    between atoms: _240  and  _241
REMARK   92  A    between atoms: _244  and  _246
REMARK   93  A    between atoms: _246  and  _247
REMARK   94  A    between atoms: _246  and  _249
REMARK   95  A    between atoms: _249  and  _250
REMARK   96  A    between atoms: _253  and  _255
REMARK   97  A    between atoms: _255  and  _256
REMARK   98  A    between atoms: _255  and  _258
REMARK   99  A    between atoms: _261  and  _263
REMARK  100  A    between atoms: _263  and  _264
REMARK  101  A    between atoms: _263  and  _266
REMARK  102  A    between atoms: _266  and  _267
REMARK  103  A    between atoms: _270  and  _272
REMARK  104  A    between atoms: _272  and  _273
REMARK  105  A    between atoms: _272  and  _275
REMARK  106  A    between atoms: _275  and  _276
REMARK  107  A    between atoms: _282  and  _283
REMARK  108  A    between atoms: _288  and  _290
REMARK  109  A    between atoms: _290  and  _291
REMARK  110  A    between atoms: _290  and  _293
REMARK  111  A    between atoms: _293  and  _294
REMARK  112  A    between atoms: _296  and  _298
REMARK  113  A    between atoms: _298  and  _299
REMARK  114  A    between atoms: _298  and  _301
REMARK  115  A    between atoms: _301  and  _302
REMARK  116  A    between atoms: _308  and  _309
REMARK  117  A    between atoms: _314  and  _316
REMARK  118  A    between atoms: _316  and  _317
REMARK  119  A    between atoms: _316  and  _319
REMARK  120  A    between atoms: _319  and  _320
REMARK  121  A    between atoms: _323  and  _325
REMARK  122  A    between atoms: _325  and  _326
REMARK  123  A    between atoms: _325  and  _328
REMARK  124  A    between atoms: _328  and  _329
REMARK  125  A    between atoms: _329  and  _330
REMARK  126  A    between atoms: _333  and  _335
REMARK  127  A    between atoms: _335  and  _336
REMARK  128  A    between atoms: _335  and  _338
REMARK  129  A    between atoms: _338  and  _339
REMARK  130  A    between atoms: _342  and  _344
REMARK  131  A    between atoms: _344  and  _345
REMARK  132  A    between atoms: _344  and  _347
REMARK  133  A    between atoms: _347  and  _348
REMARK  134  A    between atoms: _353  and  _354
REMARK  135  A    between atoms: _356  and  _358
REMARK  136  A    between atoms: _358  and  _359
REMARK  137  A    between atoms: _358  and  _361
REMARK  138  A    between atoms: _364  and  _366
REMARK  139  A    between atoms: _366  and  _367
REMARK  140  A    between atoms: _366  and  _369
REMARK  141  A    between atoms: _369  and  _370
REMARK  142  A    between atoms: _375  and  _376
REMARK  143  A    between atoms: _378  and  _380
REMARK  144  A    between atoms: _380  and  _381
REMARK  145  A    between atoms: _380  and  _383
REMARK  146  A    between atoms: _383  and  _384
REMARK  147  A    between atoms: _386  and  _388
REMARK  148  A    between atoms: _388  and  _389
REMARK  149  A    between atoms: _388  and  _391
REMARK  150  A    between atoms: _391  and  _392
REMARK  151  A    between atoms: _395  and  _397
REMARK  152  A    between atoms: _397  and  _398
REMARK  153  A    between atoms: _397  and  _400
REMARK  154  A    between atoms: _400  and  _401
REMARK  155  A    between atoms: _403  and  _405
REMARK  156  A    between atoms: _405  and  _406
REMARK  157  A    between atoms: _405  and  _408
REMARK  158  A    between atoms: _408  and  _409
REMARK  159  A    between atoms: _409  and  _410
REMARK  160  A    between atoms: _410  and  _411
REMARK  161  A    between atoms: _411  and  _412
REMARK  162  A    between atoms: _416  and  _418
REMARK  163  A    between atoms: _418  and  _419
REMARK  164  A    between atoms: _418  and  _421
REMARK  165  A    between atoms: _421  and  _422
REMARK  166  A    between atoms: _426  and  _427
REMARK  167  A    between atoms: _432  and  _434
REMARK  168  A    between atoms: _434  and  _435
REMARK  169  A    between atoms: _437  and  _439
REMARK  170  A    between atoms: _439  and  _440
REMARK  171  A    between atoms: _439  and  _442
REMARK  172  A    between atoms: _442  and  _443
REMARK  173  A    between atoms: _449  and  _451
REMARK  174  A    between atoms: _451  and  _452
REMARK  175  A    between atoms: _451  and  _454
REMARK  176  A    between atoms: _454  and  _455
REMARK  177  A    between atoms: _455  and  _456
REMARK  178  A    between atoms: _456  and  _457
REMARK  179  A    between atoms: _466  and  _468
REMARK  180  A    between atoms: _468  and  _469
REMARK  181  A    between atoms: _468  and  _471
REMARK  182  A    between atoms: _474  and  _476
REMARK  183  A    between atoms: _476  and  _477
REMARK  184  A    between atoms: _479  and  _481
REMARK  185  A    between atoms: _481  and  _482
REMARK  186  A    between atoms: _485  and  _487
REMARK  187  A    between atoms: _487  and  _488
REMARK  188  A    between atoms: _487  and  _490
REMARK  189  A    between atoms: _490  and  _491
REMARK  190  A    between atoms: _494  and  _496
REMARK  191  A    between atoms: _496  and  _497
REMARK  192  A    between atoms: _496  and  _499
REMARK  193  A    between atoms: _499  and  _500
REMARK  194  A    between atoms: _506  and  _508
REMARK  195  A    between atoms: _508  and  _509
REMARK  196  A    between atoms: _508  and  _511
REMARK  197  A    between atoms: _511  and  _512
REMARK  198  A    between atoms: _514  and  _516
REMARK  199  A    between atoms: _516  and  _517
REMARK  200  A    between atoms: _516  and  _519
REMARK  201  A    between atoms: _521  and  _523
REMARK  202  A    between atoms: _523  and  _524
REMARK  203  A    between atoms: _523  and  _526
REMARK  204  A    between atoms: _526  and  _527
REMARK  205  A    between atoms: _527  and  _528
REMARK  206  A    between atoms: _528  and  _529
REMARK  207  A    between atoms: _538  and  _540
REMARK  208  A    between atoms: _540  and  _541
REMARK  209  A    between atoms: _540  and  _543
REMARK  210  A    between atoms: _545  and  _547
REMARK  211  A    between atoms: _547  and  _548
REMARK  212  A    between atoms: _547  and  _550
REMARK  213  A    between atoms: _550  and  _551
REMARK  214  A    between atoms: _556  and  _558
REMARK  215  A    between atoms: _558  and  _559
REMARK  216  A    between atoms: _558  and  _561
REMARK  217  A    between atoms: _561  and  _562
REMARK  218  A    between atoms: _565  and  _567
REMARK  219  A    between atoms: _567  and  _568
REMARK  220  A    between atoms: _567  and  _570
REMARK  221  A    between atoms: _570  and  _571
REMARK  222  A    between atoms: _571  and  _572
REMARK  223  A    between atoms: _577  and  _579
REMARK  224  A    between atoms: _579  and  _580
REMARK  225  A    between atoms: _579  and  _582
REMARK  226  A    between atoms: _582  and  _583
REMARK  227  A    between atoms: _586  and  _588
REMARK  228  A    between atoms: _588  and  _589
REMARK  229  A    between atoms: _588  and  _591
REMARK  230  A    between atoms: _591  and  _592
REMARK  231  A    between atoms: _597  and  _598
REMARK  232  A    between atoms: _600  and  _602
REMARK  233  A    between atoms: _602  and  _603
REMARK  234  A    between atoms: _602  and  _605
REMARK  235  A    between atoms: _605  and  _606
REMARK  236  A    between atoms: _608  and  _610
REMARK  237  A    between atoms: _610  and  _611
REMARK  238  A    between atoms: _610  and  _613
REMARK  239  A    between atoms: _613  and  _614
REMARK  240  A    between atoms: _620  and  _622
REMARK  241  A    between atoms: _622  and  _623
REMARK  242  A    between atoms: _622  and  _625
REMARK  243  A    between atoms: _625  and  _626
REMARK                            x       y       z     vdW  Elec       q    Type
REMARK                         _______ _______ _______ _____ _____    ______ ____
ROOT
ATOM      1  O   HOH     1      24.134   4.640  22.053  0.00  0.00    +0.000 OA
ENDROOT
TORSDOF 0
REMARK  Name = ../refined-set-2016/1m7y/1m7y_pocket.pdb
REMARK  243 active torsions:
REMARK  status: ('A' for Active; 'I' for Inactive)
REMARK    1  A    between atoms: _1  and  _3
REMARK    2  A    between atoms: _3  and  _4
REMARK    3  A    between atoms: _3  and  _6
REMARK    4  A    between atoms: _6  and  _7
REMARK    5  A    between atoms: _12  and  _13
REMARK    6  A    between atoms: _15  and  _17
REMARK    7  A    between atoms: _17  and  _18
REMARK    8  A    between atoms: _17  and  _20
REMARK    9  A    between atoms: _20  and  _21
REMARK   10  A    between atoms: _27  and  _29
REMARK   11  A    between atoms: _29  and  _30
REMARK   12  A    between atoms: _29  and  _32
REMARK   13  A    between atoms: _32  and  _33
REMARK   14  A    between atoms: _43  and  _45
REMARK   15  A    between atoms: _45  and  _46
REMARK   16  A    between atoms: _45  and  _48
REMARK   17  A    between atoms: _48  and  _49
REMARK   18  A    between atoms: _49  and  _50
REMARK   19  A    between atoms: _55  and  _57
REMARK   20  A    between atoms: _57  and  _58
REMARK   21  A    between atoms: _60  and  _62
REMARK   22  A    between atoms: _62  and  _63
REMARK   23  A    between atoms: _62  and  _65
REMARK   24  A    between atoms: _65  and  _66
REMARK   25  A    between atoms: _69  and  _71
REMARK   26  A    between atoms: _71  and  _72
REMARK   27  A    between atoms: _75  and  _77
REMARK   28  A    between atoms: _77  and  _78
REMARK   29  A    between atoms: _77  and  _80
REMARK   30  A    between atoms: _80  and  _81
REMARK   31  A    between atoms: _81  and  _82
REMARK   32  A    between atoms: _85  and  _87
REMARK   33  A    between atoms: _87  and  _88
REMARK   34  A    between atoms: _87  and  _90
REMARK   35  A    between atoms: _90  and  _91
REMARK   36  A    between atoms: _96  and  _98
REMARK   37  A    between atoms: _98  and  _99
REMARK   38  A    between atoms: _98  and  _101
REMARK   39  A    between atoms: _101  and  _102
REMARK   40  A    between atoms: _105  and  _107
REMARK   41  A    between atoms: _107  and  _108
REMARK   42  A    between atoms: _111  and  _113
REMARK   43  A    between atoms: _113  and  _114
REMARK   44  A    between atoms: _116  and  _118
REMARK   45  A    between atoms: _118  and  _119
REMARK   46  A    between atoms: _122  and  _124
REMARK   47  A    between atoms: _124  and  _125
REMARK   48  A    between atoms: _124  and  _127
REMARK   49  A    between atoms: _127  and  _128
REMARK   50  A    between atoms: _131  and  _133
REMARK   51  A    between atoms: _133  and  _134
REMARK   52  A    between atoms: _133  and  _136
REMARK   53  A    between atoms: _136  and  _137
REMARK   54  A    between atoms: _139  and  _141
REMARK   55  A    between atoms: _141  and  _142
REMARK   56  A    between atoms: _145  and  _147
REMARK   57  A    between atoms: _147  and  _148
REMARK   58  A    between atoms: _147  and  _150
REMARK   59  A    between atoms: _150  and  _151
REMARK   60  A    between atoms: _156  and  _158
REMARK   61  A    between atoms: _158  and  _159
REMARK   62  A    between atoms: _158  and  _161
REMARK   63  A    between atoms: _161  and  _162
REMARK   64  A    between atoms: _162  and  _163
REMARK   65  A    between atoms: _166  and  _168
REMARK   66  A    between atoms: _168  and  _169
REMARK   67  A    between atoms: _168  and  _171
REMARK   68  A    between atoms: _171  and  _172
REMARK   69  A    between atoms: _177  and  _178
REMARK   70  A    between atoms: _180  and  _182
REMARK   71  A    between atoms: _182  and  _183
REMARK   72  A    between atoms: _182  and  _185
REMARK   73  A    between atoms: _185  and  _186
REMARK   74  A    between atoms: _191  and  _192
REMARK   75  A    between atoms: _195  and  _196
REMARK   76  A    between atoms: _201  and  _203
REMARK   77  A    between atoms: _203  and  _204
REMARK   78  A    between atoms: _206  and  _208
REMARK   79  A    between atoms: _208  and  _209
REMARK   80  A    between atoms: _208  and  _211
REMARK   81  A    between atoms: _211  and  _212
REMARK   82  A    between atoms: _218  and  _220
REMARK   83  A    between atoms: _220  and  _221
REMARK   84  A    between atoms: _220  and  _223
REMARK   85  A    between atoms: _223  and  _224
REMARK   86  A    between atoms: _224  and  _225
REMARK   87  A    between atoms: _225  and  _226
REMARK   88  A    between atoms: _235  and  _237
REMARK   89  A    between atoms: _237  and  _238
REMARK   90  A    between atoms: _237  and  _240
REMARK   91  A    between atoms: _240  and  _241
REMARK   92  A    between atoms: _244  and  _246
REMARK   93  A    between atoms: _246  and  _247
REMARK   94  A    between atoms: _246  and  _249
REMARK   95  A    between atoms: _249  and  _250
REMARK   96  A    between atoms: _253  and  _255
REMARK   97  A    between atoms: _255  and  _256
REMARK   98  A    between atoms: _255  and  _258
REMARK   99  A    between atoms: _261  and  _263
REMARK  100  A    between atoms: _263  and  _264
REMARK  101  A    between atoms: _263  and  _266
REMARK  102  A    between atoms: _266  and  _267
REMARK  103  A    between atoms: _270  and  _272
REMARK  104  A    between atoms: _272  and  _273
REMARK  105  A    between atoms: _272  and  _275
REMARK  106  A    between atoms: _275  and  _276
REMARK  107  A    between atoms: _282  and  _283
REMARK  108  A    between atoms: _288  and  _290
REMARK  109  A    between atoms: _290  and  _291
REMARK  110  A    between atoms: _290  and  _293
REMARK  111  A    between atoms: _293  and  _294
REMARK  112  A    between atoms: _296  and  _298
REMARK  113  A    between atoms: _298  and  _299
REMARK  114  A    between atoms: _298  and  _301
REMARK  115  A    between atoms: _301  and  _302
REMARK  116  A    between atoms: _308  and  _309
REMARK  117  A    between atoms: _314  and  _316
REMARK  118  A    between atoms: _316  and  _317
REMARK  119  A    between atoms: _316  and  _319
REMARK  120  A    between atoms: _319  and  _320
REMARK  121  A    between atoms: _323  and  _325
REMARK  122  A    between atoms: _325  and  _326
REMARK  123  A    between atoms: _325  and  _328
REMARK  124  A    between atoms: _328  and  _329
REMARK  125  A    between atoms: _329  and  _330
REMARK  126  A    between atoms: _333  and  _335
REMARK  127  A    between atoms: _335  and  _336
REMARK  128  A    between atoms: _335  and  _338
REMARK  129  A    between atoms: _338  and  _339
REMARK  130  A    between atoms: _342  and  _344
REMARK  131  A    between atoms: _344  and  _345
REMARK  132  A    between atoms: _344  and  _347
REMARK  133  A    between atoms: _347  and  _348
REMARK  134  A    between atoms: _353  and  _354
REMARK  135  A    between atoms: _356  and  _358
REMARK  136  A    between atoms: _358  and  _359
REMARK  137  A    between atoms: _358  and  _361
REMARK  138  A    between atoms: _364  and  _366
REMARK  139  A    between atoms: _366  and  _367
REMARK  140  A    between atoms: _366  and  _369
REMARK  141  A    between atoms: _369  and  _370
REMARK  142  A    between atoms: _375  and  _376
REMARK  143  A    between atoms: _378  and  _380
REMARK  144  A    between atoms: _380  and  _381
REMARK  145  A    between atoms: _380  and  _383
REMARK  146  A    between atoms: _383  and  _384
REMARK  147  A    between atoms: _386  and  _388
REMARK  148  A    between atoms: _388  and  _389
REMARK  149  A    between atoms: _388  and  _391
REMARK  150  A    between atoms: _391  and  _392
REMARK  151  A    between atoms: _395  and  _397
REMARK  152  A    between atoms: _397  and  _398
REMARK  153  A    between atoms: _397  and  _400
REMARK  154  A    between atoms: _400  and  _401
REMARK  155  A    between atoms: _403  and  _405
REMARK  156  A    between atoms: _405  and  _406
REMARK  157  A    between atoms: _405  and  _408
REMARK  158  A    between atoms: _408  and  _409
REMARK  159  A    between atoms: _409  and  _410
REMARK  160  A    between atoms: _410  and  _411
REMARK  161  A    between atoms: _411  and  _412
REMARK  162  A    between atoms: _416  and  _418
REMARK  163  A    between atoms: _418  and  _419
REMARK  164  A    between atoms: _418  and  _421
REMARK  165  A    between atoms: _421  and  _422
REMARK  166  A    between atoms: _426  and  _427
REMARK  167  A    between atoms: _432  and  _434
REMARK  168  A    between atoms: _434  and  _435
REMARK  169  A    between atoms: _437  and  _439
REMARK  170  A    between atoms: _439  and  _440
REMARK  171  A    between atoms: _439  and  _442
REMARK  172  A    between atoms: _442  and  _443
REMARK  173  A    between atoms: _449  and  _451
REMARK  174  A    between atoms: _451  and  _452
REMARK  175  A    between atoms: _451  and  _454
REMARK  176  A    between atoms: _454  and  _455
REMARK  177  A    between atoms: _455  and  _456
REMARK  178  A    between atoms: _456  and  _457
REMARK  179  A    between atoms: _466  and  _468
REMARK  180  A    between atoms: _468  and  _469
REMARK  181  A    between atoms: _468  and  _471
REMARK  182  A    between atoms: _474  and  _476
REMARK  183  A    between atoms: _476  and  _477
REMARK  184  A    between atoms: _479  and  _481
REMARK  185  A    between atoms: _481  and  _482
REMARK  186  A    between atoms: _485  and  _487
REMARK  187  A    between atoms: _487  and  _488
REMARK  188  A    between atoms: _487  and  _490
REMARK  189  A    between atoms: _490  and  _491
REMARK  190  A    between atoms: _494  and  _496
REMARK  191  A    between atoms: _496  and  _497
REMARK  192  A    between atoms: _496  and  _499
REMARK  193  A    between atoms: _499  and  _500
REMARK  194  A    between atoms: _506  and  _508
REMARK  195  A    between atoms: _508  and  _509
REMARK  196  A    between atoms: _508  and  _511
REMARK  197  A    between atoms: _511  and  _512
REMARK  198  A    between atoms: _514  and  _516
REMARK  199  A    between atoms: _516  and  _517
REMARK  200  A    between atoms: _516  and  _519
REMARK  201  A    between atoms: _521  and  _523
REMARK  202  A    between atoms: _523  and  _524
REMARK  203  A    between atoms: _523  and  _526
REMARK  204  A    between atoms: _526  and  _527
REMARK  205  A    between atoms: _527  and  _528
REMARK  206  A    between atoms: _528  and  _529
REMARK  207  A    between atoms: _538  and  _540
REMARK  208  A    between atoms: _540  and  _541
REMARK  209  A    between atoms: _540  and  _543
REMARK  210  A    between atoms: _545  and  _547
REMARK  211  A    between atoms: _547  and  _548
REMARK  212  A    between atoms: _547  and  _550
REMARK  213  A    between atoms: _550  and  _551
REMARK  214  A    between atoms: _556  and  _558
REMARK  215  A    between atoms: _558  and  _559
REMARK  216  A    between atoms: _558  and  _561
REMARK  217  A    between atoms: _561  and  _562
REMARK  218  A    between atoms: _565  and  _567
REMARK  219  A    between atoms: _567  and  _568
REMARK  220  A    between atoms: _567  and  _570
REMARK  221  A    between atoms: _570  and  _571
REMARK  222  A    between atoms: _571  and  _572
REMARK  223  A    between atoms: _577  and  _579
REMARK  224  A    between atoms: _579  and  _580
REMARK  225  A    between atoms: _579  and  _582
REMARK  226  A    between atoms: _582  and  _583
REMARK  227  A    between atoms: _586  and  _588
REMARK  228  A    between atoms: _588  and  _589
REMARK  229  A    between atoms: _588  and  _591
REMARK  230  A    between atoms: _591  and  _592
REMARK  231  A    between atoms: _597  and  _598
REMARK  232  A    between atoms: _600  and  _602
REMARK  233  A    between atoms: _602  and  _603
REMARK  234  A    between atoms: _602  and  _605
REMARK  235  A    between atoms: _605  and  _606
REMARK  236  A    between atoms: _608  and  _610
REMARK  237  A    between atoms: _610  and  _611
REMARK  238  A    between atoms: _610  and  _613
REMARK  239  A    between atoms: _613  and  _614
REMARK  240  A    between atoms: _620  and  _622
REMARK  241  A    between atoms: _622  and  _623
REMARK  242  A    between atoms: _622  and  _625
REMARK  243  A    between atoms: _625  and  _626
REMARK                            x       y       z     vdW  Elec       q    Type
REMARK                         _______ _______ _______ _____ _____    ______ ____
ROOT
ATOM      1  O   HOH     1      13.266  -6.774  16.659  0.00  0.00    +0.000 OA
ENDROOT
TORSDOF 0
REMARK  Name = ../refined-set-2016/1m7y/1m7y_pocket.pdb
REMARK  243 active torsions:
REMARK  status: ('A' for Active; 'I' for Inactive)
REMARK    1  A    between atoms: _1  and  _3
REMARK    2  A    between atoms: _3  and  _4
REMARK    3  A    between atoms: _3  and  _6
REMARK    4  A    between atoms: _6  and  _7
REMARK    5  A    between atoms: _12  and  _13
REMARK    6  A    between atoms: _15  and  _17
REMARK    7  A    between atoms: _17  and  _18
REMARK    8  A    between atoms: _17  and  _20
REMARK    9  A    between atoms: _20  and  _21
REMARK   10  A    between atoms: _27  and  _29
REMARK   11  A    between atoms: _29  and  _30
REMARK   12  A    between atoms: _29  and  _32
REMARK   13  A    between atoms: _32  and  _33
REMARK   14  A    between atoms: _43  and  _45
REMARK   15  A    between atoms: _45  and  _46
REMARK   16  A    between atoms: _45  and  _48
REMARK   17  A    between atoms: _48  and  _49
REMARK   18  A    between atoms: _49  and  _50
REMARK   19  A    between atoms: _55  and  _57
REMARK   20  A    between atoms: _57  and  _58
REMARK   21  A    between atoms: _60  and  _62
REMARK   22  A    between atoms: _62  and  _63
REMARK   23  A    between atoms: _62  and  _65
REMARK   24  A    between atoms: _65  and  _66
REMARK   25  A    between atoms: _69  and  _71
REMARK   26  A    between atoms: _71  and  _72
REMARK   27  A    between atoms: _75  and  _77
REMARK   28  A    between atoms: _77  and  _78
REMARK   29  A    between atoms: _77  and  _80
REMARK   30  A    between atoms: _80  and  _81
REMARK   31  A    between atoms: _81  and  _82
REMARK   32  A    between atoms: _85  and  _87
REMARK   33  A    between atoms: _87  and  _88
REMARK   34  A    between atoms: _87  and  _90
REMARK   35  A    between atoms: _90  and  _91
REMARK   36  A    between atoms: _96  and  _98
REMARK   37  A    between atoms: _98  and  _99
REMARK   38  A    between atoms: _98  and  _101
REMARK   39  A    between atoms: _101  and  _102
REMARK   40  A    between atoms: _105  and  _107
REMARK   41  A    between atoms: _107  and  _108
REMARK   42  A    between atoms: _111  and  _113
REMARK   43  A    between atoms: _113  and  _114
REMARK   44  A    between atoms: _116  and  _118
REMARK   45  A    between atoms: _118  and  _119
REMARK   46  A    between atoms: _122  and  _124
REMARK   47  A    between atoms: _124  and  _125
REMARK   48  A    between atoms: _124  and  _127
REMARK   49  A    between atoms: _127  and  _128
REMARK   50  A    between atoms: _131  and  _133
REMARK   51  A    between atoms: _133  and  _134
REMARK   52  A    between atoms: _133  and  _136
REMARK   53  A    between atoms: _136  and  _137
REMARK   54  A    between atoms: _139  and  _141
REMARK   55  A    between atoms: _141  and  _142
REMARK   56  A    between atoms: _145  and  _147
REMARK   57  A    between atoms: _147  and  _148
REMARK   58  A    between atoms: _147  and  _150
REMARK   59  A    between atoms: _150  and  _151
REMARK   60  A    between atoms: _156  and  _158
REMARK   61  A    between atoms: _158  and  _159
REMARK   62  A    between atoms: _158  and  _161
REMARK   63  A    between atoms: _161  and  _162
REMARK   64  A    between atoms: _162  and  _163
REMARK   65  A    between atoms: _166  and  _168
REMARK   66  A    between atoms: _168  and  _169
REMARK   67  A    between atoms: _168  and  _171
REMARK   68  A    between atoms: _171  and  _172
REMARK   69  A    between atoms: _177  and  _178
REMARK   70  A    between atoms: _180  and  _182
REMARK   71  A    between atoms: _182  and  _183
REMARK   72  A    between atoms: _182  and  _185
REMARK   73  A    between atoms: _185  and  _186
REMARK   74  A    between atoms: _191  and  _192
REMARK   75  A    between atoms: _195  and  _196
REMARK   76  A    between atoms: _201  and  _203
REMARK   77  A    between atoms: _203  and  _204
REMARK   78  A    between atoms: _206  and  _208
REMARK   79  A    between atoms: _208  and  _209
REMARK   80  A    between atoms: _208  and  _211
REMARK   81  A    between atoms: _211  and  _212
REMARK   82  A    between atoms: _218  and  _220
REMARK   83  A    between atoms: _220  and  _221
REMARK   84  A    between atoms: _220  and  _223
REMARK   85  A    between atoms: _223  and  _224
REMARK   86  A    between atoms: _224  and  _225
REMARK   87  A    between atoms: _225  and  _226
REMARK   88  A    between atoms: _235  and  _237
REMARK   89  A    between atoms: _237  and  _238
REMARK   90  A    between atoms: _237  and  _240
REMARK   91  A    between atoms: _240  and  _241
REMARK   92  A    between atoms: _244  and  _246
REMARK   93  A    between atoms: _246  and  _247
REMARK   94  A    between atoms: _246  and  _249
REMARK   95  A    between atoms: _249  and  _250
REMARK   96  A    between atoms: _253  and  _255
REMARK   97  A    between atoms: _255  and  _256
REMARK   98  A    between atoms: _255  and  _258
REMARK   99  A    between atoms: _261  and  _263
REMARK  100  A    between atoms: _263  and  _264
REMARK  101  A    between atoms: _263  and  _266
REMARK  102  A    between atoms: _266  and  _267
REMARK  103  A    between atoms: _270  and  _272
REMARK  104  A    between atoms: _272  and  _273
REMARK  105  A    between atoms: _272  and  _275
REMARK  106  A    between atoms: _275  and  _276
REMARK  107  A    between atoms: _282  and  _283
REMARK  108  A    between atoms: _288  and  _290
REMARK  109  A    between atoms: _290  and  _291
REMARK  110  A    between atoms: _290  and  _293
REMARK  111  A    between atoms: _293  and  _294
REMARK  112  A    between atoms: _296  and  _298
REMARK  113  A    between atoms: _298  and  _299
REMARK  114  A    between atoms: _298  and  _301
REMARK  115  A    between atoms: _301  and  _302
REMARK  116  A    between atoms: _308  and  _309
REMARK  117  A    between atoms: _314  and  _316
REMARK  118  A    between atoms: _316  and  _317
REMARK  119  A    between atoms: _316  and  _319
REMARK  120  A    between atoms: _319  and  _320
REMARK  121  A    between atoms: _323  and  _325
REMARK  122  A    between atoms: _325  and  _326
REMARK  123  A    between atoms: _325  and  _328
REMARK  124  A    between atoms: _328  and  _329
REMARK  125  A    between atoms: _329  and  _330
REMARK  126  A    between atoms: _333  and  _335
REMARK  127  A    between atoms: _335  and  _336
REMARK  128  A    between atoms: _335  and  _338
REMARK  129  A    between atoms: _338  and  _339
REMARK  130  A    between atoms: _342  and  _344
REMARK  131  A    between atoms: _344  and  _345
REMARK  132  A    between atoms: _344  and  _347
REMARK  133  A    between atoms: _347  and  _348
REMARK  134  A    between atoms: _353  and  _354
REMARK  135  A    between atoms: _356  and  _358
REMARK  136  A    between atoms: _358  and  _359
REMARK  137  A    between atoms: _358  and  _361
REMARK  138  A    between atoms: _364  and  _366
REMARK  139  A    between atoms: _366  and  _367
REMARK  140  A    between atoms: _366  and  _369
REMARK  141  A    between atoms: _369  and  _370
REMARK  142  A    between atoms: _375  and  _376
REMARK  143  A    between atoms: _378  and  _380
REMARK  144  A    between atoms: _380  and  _381
REMARK  145  A    between atoms: _380  and  _383
REMARK  146  A    between atoms: _383  and  _384
REMARK  147  A    between atoms: _386  and  _388
REMARK  148  A    between atoms: _388  and  _389
REMARK  149  A    between atoms: _388  and  _391
REMARK  150  A    between atoms: _391  and  _392
REMARK  151  A    between atoms: _395  and  _397
REMARK  152  A    between atoms: _397  and  _398
REMARK  153  A    between atoms: _397  and  _400
REMARK  154  A    between atoms: _400  and  _401
REMARK  155  A    between atoms: _403  and  _405
REMARK  156  A    between atoms: _405  and  _406
REMARK  157  A    between atoms: _405  and  _408
REMARK  158  A    between atoms: _408  and  _409
REMARK  159  A    between atoms: _409  and  _410
REMARK  160  A    between atoms: _410  and  _411
REMARK  161  A    between atoms: _411  and  _412
REMARK  162  A    between atoms: _416  and  _418
REMARK  163  A    between atoms: _418  and  _419
REMARK  164  A    between atoms: _418  and  _421
REMARK  165  A    between atoms: _421  and  _422
REMARK  166  A    between atoms: _426  and  _427
REMARK  167  A    between atoms: _432  and  _434
REMARK  168  A    between atoms: _434  and  _435
REMARK  169  A    between atoms: _437  and  _439
REMARK  170  A    between atoms: _439  and  _440
REMARK  171  A    between atoms: _439  and  _442
REMARK  172  A    between atoms: _442  and  _443
REMARK  173  A    between atoms: _449  and  _451
REMARK  174  A    between atoms: _451  and  _452
REMARK  175  A    between atoms: _451  and  _454
REMARK  176  A    between atoms: _454  and  _455
REMARK  177  A    between atoms: _455  and  _456
REMARK  178  A    between atoms: _456  and  _457
REMARK  179  A    between atoms: _466  and  _468
REMARK  180  A    between atoms: _468  and  _469
REMARK  181  A    between atoms: _468  and  _471
REMARK  182  A    between atoms: _474  and  _476
REMARK  183  A    between atoms: _476  and  _477
REMARK  184  A    between atoms: _479  and  _481
REMARK  185  A    between atoms: _481  and  _482
REMARK  186  A    between atoms: _485  and  _487
REMARK  187  A    between atoms: _487  and  _488
REMARK  188  A    between atoms: _487  and  _490
REMARK  189  A    between atoms: _490  and  _491
REMARK  190  A    between atoms: _494  and  _496
REMARK  191  A    between atoms: _496  and  _497
REMARK  192  A    between atoms: _496  and  _499
REMARK  193  A    between atoms: _499  and  _500
REMARK  194  A    between atoms: _506  and  _508
REMARK  195  A    between atoms: _508  and  _509
REMARK  196  A    between atoms: _508  and  _511
REMARK  197  A    between atoms: _511  and  _512
REMARK  198  A    between atoms: _514  and  _516
REMARK  199  A    between atoms: _516  and  _517
REMARK  200  A    between atoms: _516  and  _519
REMARK  201  A    between atoms: _521  and  _523
REMARK  202  A    between atoms: _523  and  _524
REMARK  203  A    between atoms: _523  and  _526
REMARK  204  A    between atoms: _526  and  _527
REMARK  205  A    between atoms: _527  and  _528
REMARK  206  A    between atoms: _528  and  _529
REMARK  207  A    between atoms: _538  and  _540
REMARK  208  A    between atoms: _540  and  _541
REMARK  209  A    between atoms: _540  and  _543
REMARK  210  A    between atoms: _545  and  _547
REMARK  211  A    between atoms: _547  and  _548
REMARK  212  A    between atoms: _547  and  _550
REMARK  213  A    between atoms: _550  and  _551
REMARK  214  A    between atoms: _556  and  _558
REMARK  215  A    between atoms: _558  and  _559
REMARK  216  A    between atoms: _558  and  _561
REMARK  217  A    between atoms: _561  and  _562
REMARK  218  A    between atoms: _565  and  _567
REMARK  219  A    between atoms: _567  and  _568
REMARK  220  A    between atoms: _567  and  _570
REMARK  221  A    between atoms: _570  and  _571
REMARK  222  A    between atoms: _571  and  _572
REMARK  223  A    between atoms: _577  and  _579
REMARK  224  A    between atoms: _579  and  _580
REMARK  225  A    between atoms: _579  and  _582
REMARK  226  A    between atoms: _582  and  _583
REMARK  227  A    between atoms: _586  and  _588
REMARK  228  A    between atoms: _588  and  _589
REMARK  229  A    between atoms: _588  and  _591
REMARK  230  A    between atoms: _591  and  _592
REMARK  231  A    between atoms: _597  and  _598
REMARK  232  A    between atoms: _600  and  _602
REMARK  233  A    between atoms: _602  and  _603
REMARK  234  A    between atoms: _602  and  _605
REMARK  235  A    between atoms: _605  and  _606
REMARK  236  A    between atoms: _608  and  _610
REMARK  237  A    between atoms: _610  and  _611
REMARK  238  A    between atoms: _610  and  _613
REMARK  239  A    between atoms: _613  and  _614
REMARK  240  A    between atoms: _620  and  _622
REMARK  241  A    between atoms: _622  and  _623
REMARK  242  A    between atoms: _622  and  _625
REMARK  243  A    between atoms: _625  and  _626
REMARK                            x       y       z     vdW  Elec       q    Type
REMARK                         _______ _______ _______ _____ _____    ______ ____
ROOT
ATOM      1  O   HOH     1       9.912   0.293  17.465  0.00  0.00    +0.000 OA
ENDROOT
TORSDOF 0
REMARK  Name = ../refined-set-2016/1m7y/1m7y_pocket.pdb
REMARK  243 active torsions:
REMARK  status: ('A' for Active; 'I' for Inactive)
REMARK    1  A    between atoms: _1  and  _3
REMARK    2  A    between atoms: _3  and  _4
REMARK    3  A    between atoms: _3  and  _6
REMARK    4  A    between atoms: _6  and  _7
REMARK    5  A    between atoms: _12  and  _13
REMARK    6  A    between atoms: _15  and  _17
REMARK    7  A    between atoms: _17  and  _18
REMARK    8  A    between atoms: _17  and  _20
REMARK    9  A    between atoms: _20  and  _21
REMARK   10  A    between atoms: _27  and  _29
REMARK   11  A    between atoms: _29  and  _30
REMARK   12  A    between atoms: _29  and  _32
REMARK   13  A    between atoms: _32  and  _33
REMARK   14  A    between atoms: _43  and  _45
REMARK   15  A    between atoms: _45  and  _46
REMARK   16  A    between atoms: _45  and  _48
REMARK   17  A    between atoms: _48  and  _49
REMARK   18  A    between atoms: _49  and  _50
REMARK   19  A    between atoms: _55  and  _57
REMARK   20  A    between atoms: _57  and  _58
REMARK   21  A    between atoms: _60  and  _62
REMARK   22  A    between atoms: _62  and  _63
REMARK   23  A    between atoms: _62  and  _65
REMARK   24  A    between atoms: _65  and  _66
REMARK   25  A    between atoms: _69  and  _71
REMARK   26  A    between atoms: _71  and  _72
REMARK   27  A    between atoms: _75  and  _77
REMARK   28  A    between atoms: _77  and  _78
REMARK   29  A    between atoms: _77  and  _80
REMARK   30  A    between atoms: _80  and  _81
REMARK   31  A    between atoms: _81  and  _82
REMARK   32  A    between atoms: _85  and  _87
REMARK   33  A    between atoms: _87  and  _88
REMARK   34  A    between atoms: _87  and  _90
REMARK   35  A    between atoms: _90  and  _91
REMARK   36  A    between atoms: _96  and  _98
REMARK   37  A    between atoms: _98  and  _99
REMARK   38  A    between atoms: _98  and  _101
REMARK   39  A    between atoms: _101  and  _102
REMARK   40  A    between atoms: _105  and  _107
REMARK   41  A    between atoms: _107  and  _108
REMARK   42  A    between atoms: _111  and  _113
REMARK   43  A    between atoms: _113  and  _114
REMARK   44  A    between atoms: _116  and  _118
REMARK   45  A    between atoms: _118  and  _119
REMARK   46  A    between atoms: _122  and  _124
REMARK   47  A    between atoms: _124  and  _125
REMARK   48  A    between atoms: _124  and  _127
REMARK   49  A    between atoms: _127  and  _128
REMARK   50  A    between atoms: _131  and  _133
REMARK   51  A    between atoms: _133  and  _134
REMARK   52  A    between atoms: _133  and  _136
REMARK   53  A    between atoms: _136  and  _137
REMARK   54  A    between atoms: _139  and  _141
REMARK   55  A    between atoms: _141  and  _142
REMARK   56  A    between atoms: _145  and  _147
REMARK   57  A    between atoms: _147  and  _148
REMARK   58  A    between atoms: _147  and  _150
REMARK   59  A    between atoms: _150  and  _151
REMARK   60  A    between atoms: _156  and  _158
REMARK   61  A    between atoms: _158  and  _159
REMARK   62  A    between atoms: _158  and  _161
REMARK   63  A    between atoms: _161  and  _162
REMARK   64  A    between atoms: _162  and  _163
REMARK   65  A    between atoms: _166  and  _168
REMARK   66  A    between atoms: _168  and  _169
REMARK   67  A    between atoms: _168  and  _171
REMARK   68  A    between atoms: _171  and  _172
REMARK   69  A    between atoms: _177  and  _178
REMARK   70  A    between atoms: _180  and  _182
REMARK   71  A    between atoms: _182  and  _183
REMARK   72  A    between atoms: _182  and  _185
REMARK   73  A    between atoms: _185  and  _186
REMARK   74  A    between atoms: _191  and  _192
REMARK   75  A    between atoms: _195  and  _196
REMARK   76  A    between atoms: _201  and  _203
REMARK   77  A    between atoms: _203  and  _204
REMARK   78  A    between atoms: _206  and  _208
REMARK   79  A    between atoms: _208  and  _209
REMARK   80  A    between atoms: _208  and  _211
REMARK   81  A    between atoms: _211  and  _212
REMARK   82  A    between atoms: _218  and  _220
REMARK   83  A    between atoms: _220  and  _221
REMARK   84  A    between atoms: _220  and  _223
REMARK   85  A    between atoms: _223  and  _224
REMARK   86  A    between atoms: _224  and  _225
REMARK   87  A    between atoms: _225  and  _226
REMARK   88  A    between atoms: _235  and  _237
REMARK   89  A    between atoms: _237  and  _238
REMARK   90  A    between atoms: _237  and  _240
REMARK   91  A    between atoms: _240  and  _241
REMARK   92  A    between atoms: _244  and  _246
REMARK   93  A    between atoms: _246  and  _247
REMARK   94  A    between atoms: _246  and  _249
REMARK   95  A    between atoms: _249  and  _250
REMARK   96  A    between atoms: _253  and  _255
REMARK   97  A    between atoms: _255  and  _256
REMARK   98  A    between atoms: _255  and  _258
REMARK   99  A    between atoms: _261  and  _263
REMARK  100  A    between atoms: _263  and  _264
REMARK  101  A    between atoms: _263  and  _266
REMARK  102  A    between atoms: _266  and  _267
REMARK  103  A    between atoms: _270  and  _272
REMARK  104  A    between atoms: _272  and  _273
REMARK  105  A    between atoms: _272  and  _275
REMARK  106  A    between atoms: _275  and  _276
REMARK  107  A    between atoms: _282  and  _283
REMARK  108  A    between atoms: _288  and  _290
REMARK  109  A    between atoms: _290  and  _291
REMARK  110  A    between atoms: _290  and  _293
REMARK  111  A    between atoms: _293  and  _294
REMARK  112  A    between atoms: _296  and  _298
REMARK  113  A    between atoms: _298  and  _299
REMARK  114  A    between atoms: _298  and  _301
REMARK  115  A    between atoms: _301  and  _302
REMARK  116  A    between atoms: _308  and  _309
REMARK  117  A    between atoms: _314  and  _316
REMARK  118  A    between atoms: _316  and  _317
REMARK  119  A    between atoms: _316  and  _319
REMARK  120  A    between atoms: _319  and  _320
REMARK  121  A    between atoms: _323  and  _325
REMARK  122  A    between atoms: _325  and  _326
REMARK  123  A    between atoms: _325  and  _328
REMARK  124  A    between atoms: _328  and  _329
REMARK  125  A    between atoms: _329  and  _330
REMARK  126  A    between atoms: _333  and  _335
REMARK  127  A    between atoms: _335  and  _336
REMARK  128  A    between atoms: _335  and  _338
REMARK  129  A    between atoms: _338  and  _339
REMARK  130  A    between atoms: _342  and  _344
REMARK  131  A    between atoms: _344  and  _345
REMARK  132  A    between atoms: _344  and  _347
REMARK  133  A    between atoms: _347  and  _348
REMARK  134  A    between atoms: _353  and  _354
REMARK  135  A    between atoms: _356  and  _358
REMARK  136  A    between atoms: _358  and  _359
REMARK  137  A    between atoms: _358  and  _361
REMARK  138  A    between atoms: _364  and  _366
REMARK  139  A    between atoms: _366  and  _367
REMARK  140  A    between atoms: _366  and  _369
REMARK  141  A    between atoms: _369  and  _370
REMARK  142  A    between atoms: _375  and  _376
REMARK  143  A    between atoms: _378  and  _380
REMARK  144  A    between atoms: _380  and  _381
REMARK  145  A    between atoms: _380  and  _383
REMARK  146  A    between atoms: _383  and  _384
REMARK  147  A    between atoms: _386  and  _388
REMARK  148  A    between atoms: _388  and  _389
REMARK  149  A    between atoms: _388  and  _391
REMARK  150  A    between atoms: _391  and  _392
REMARK  151  A    between atoms: _395  and  _397
REMARK  152  A    between atoms: _397  and  _398
REMARK  153  A    between atoms: _397  and  _400
REMARK  154  A    between atoms: _400  and  _401
REMARK  155  A    between atoms: _403  and  _405
REMARK  156  A    between atoms: _405  and  _406
REMARK  157  A    between atoms: _405  and  _408
REMARK  158  A    between atoms: _408  and  _409
REMARK  159  A    between atoms: _409  and  _410
REMARK  160  A    between atoms: _410  and  _411
REMARK  161  A    between atoms: _411  and  _412
REMARK  162  A    between atoms: _416  and  _418
REMARK  163  A    between atoms: _418  and  _419
REMARK  164  A    between atoms: _418  and  _421
REMARK  165  A    between atoms: _421  and  _422
REMARK  166  A    between atoms: _426  and  _427
REMARK  167  A    between atoms: _432  and  _434
REMARK  168  A    between atoms: _434  and  _435
REMARK  169  A    between atoms: _437  and  _439
REMARK  170  A    between atoms: _439  and  _440
REMARK  171  A    between atoms: _439  and  _442
REMARK  172  A    between atoms: _442  and  _443
REMARK  173  A    between atoms: _449  and  _451
REMARK  174  A    between atoms: _451  and  _452
REMARK  175  A    between atoms: _451  and  _454
REMARK  176  A    between atoms: _454  and  _455
REMARK  177  A    between atoms: _455  and  _456
REMARK  178  A    between atoms: _456  and  _457
REMARK  179  A    between atoms: _466  and  _468
REMARK  180  A    between atoms: _468  and  _469
REMARK  181  A    between atoms: _468  and  _471
REMARK  182  A    between atoms: _474  and  _476
REMARK  183  A    between atoms: _476  and  _477
REMARK  184  A    between atoms: _479  and  _481
REMARK  185  A    between atoms: _481  and  _482
REMARK  186  A    between atoms: _485  and  _487
REMARK  187  A    between atoms: _487  and  _488
REMARK  188  A    between atoms: _487  and  _490
REMARK  189  A    between atoms: _490  and  _491
REMARK  190  A    between atoms: _494  and  _496
REMARK  191  A    between atoms: _496  and  _497
REMARK  192  A    between atoms: _496  and  _499
REMARK  193  A    between atoms: _499  and  _500
REMARK  194  A    between atoms: _506  and  _508
REMARK  195  A    between atoms: _508  and  _509
REMARK  196  A    between atoms: _508  and  _511
REMARK  197  A    between atoms: _511  and  _512
REMARK  198  A    between atoms: _514  and  _516
REMARK  199  A    between atoms: _516  and  _517
REMARK  200  A    between atoms: _516  and  _519
REMARK  201  A    between atoms: _521  and  _523
REMARK  202  A    between atoms: _523  and  _524
REMARK  203  A    between atoms: _523  and  _526
REMARK  204  A    between atoms: _526  and  _527
REMARK  205  A    between atoms: _527  and  _528
REMARK  206  A    between atoms: _528  and  _529
REMARK  207  A    between atoms: _538  and  _540
REMARK  208  A    between atoms: _540  and  _541
REMARK  209  A    between atoms: _540  and  _543
REMARK  210  A    between atoms: _545  and  _547
REMARK  211  A    between atoms: _547  and  _548
REMARK  212  A    between atoms: _547  and  _550
REMARK  213  A    between atoms: _550  and  _551
REMARK  214  A    between atoms: _556  and  _558
REMARK  215  A    between atoms: _558  and  _559
REMARK  216  A    between atoms: _558  and  _561
REMARK  217  A    between atoms: _561  and  _562
REMARK  218  A    between atoms: _565  and  _567
REMARK  219  A    between atoms: _567  and  _568
REMARK  220  A    between atoms: _567  and  _570
REMARK  221  A    between atoms: _570  and  _571
REMARK  222  A    between atoms: _571  and  _572
REMARK  223  A    between atoms: _577  and  _579
REMARK  224  A    between atoms: _579  and  _580
REMARK  225  A    between atoms: _579  and  _582
REMARK  226  A    between atoms: _582  and  _583
REMARK  227  A    between atoms: _586  and  _588
REMARK  228  A    between atoms: _588  and  _589
REMARK  229  A    between atoms: _588  and  _591
REMARK  230  A    between atoms: _591  and  _592
REMARK  231  A    between atoms: _597  and  _598
REMARK  232  A    between atoms: _600  and  _602
REMARK  233  A    between atoms: _602  and  _603
REMARK  234  A    between atoms: _602  and  _605
REMARK  235  A    between atoms: _605  and  _606
REMARK  236  A    between atoms: _608  and  _610
REMARK  237  A    between atoms: _610  and  _611
REMARK  238  A    between atoms: _610  and  _613
REMARK  239  A    between atoms: _613  and  _614
REMARK  240  A    between atoms: _620  and  _622
REMARK  241  A    between atoms: _622  and  _623
REMARK  242  A    between atoms: _622  and  _625
REMARK  243  A    between atoms: _625  and  _626
REMARK                            x       y       z     vdW  Elec       q    Type
REMARK                         _______ _______ _______ _____ _____    ______ ____
ROOT
ATOM      1  O   HOH     1      24.138   0.524  12.644  0.00  0.00    +0.000 OA
ENDROOT
TORSDOF 0
REMARK  Name = ../refined-set-2016/1m7y/1m7y_pocket.pdb
REMARK  243 active torsions:
REMARK  status: ('A' for Active; 'I' for Inactive)
REMARK    1  A    between atoms: _1  and  _3
REMARK    2  A    between atoms: _3  and  _4
REMARK    3  A    between atoms: _3  and  _6
REMARK    4  A    between atoms: _6  and  _7
REMARK    5  A    between atoms: _12  and  _13
REMARK    6  A    between atoms: _15  and  _17
REMARK    7  A    between atoms: _17  and  _18
REMARK    8  A    between atoms: _17  and  _20
REMARK    9  A    between atoms: _20  and  _21
REMARK   10  A    between atoms: _27  and  _29
REMARK   11  A    between atoms: _29  and  _30
REMARK   12  A    between atoms: _29  and  _32
REMARK   13  A    between atoms: _32  and  _33
REMARK   14  A    between atoms: _43  and  _45
REMARK   15  A    between atoms: _45  and  _46
REMARK   16  A    between atoms: _45  and  _48
REMARK   17  A    between atoms: _48  and  _49
REMARK   18  A    between atoms: _49  and  _50
REMARK   19  A    between atoms: _55  and  _57
REMARK   20  A    between atoms: _57  and  _58
REMARK   21  A    between atoms: _60  and  _62
REMARK   22  A    between atoms: _62  and  _63
REMARK   23  A    between atoms: _62  and  _65
REMARK   24  A    between atoms: _65  and  _66
REMARK   25  A    between atoms: _69  and  _71
REMARK   26  A    between atoms: _71  and  _72
REMARK   27  A    between atoms: _75  and  _77
REMARK   28  A    between atoms: _77  and  _78
REMARK   29  A    between atoms: _77  and  _80
REMARK   30  A    between atoms: _80  and  _81
REMARK   31  A    between atoms: _81  and  _82
REMARK   32  A    between atoms: _85  and  _87
REMARK   33  A    between atoms: _87  and  _88
REMARK   34  A    between atoms: _87  and  _90
REMARK   35  A    between atoms: _90  and  _91
REMARK   36  A    between atoms: _96  and  _98
REMARK   37  A    between atoms: _98  and  _99
REMARK   38  A    between atoms: _98  and  _101
REMARK   39  A    between atoms: _101  and  _102
REMARK   40  A    between atoms: _105  and  _107
REMARK   41  A    between atoms: _107  and  _108
REMARK   42  A    between atoms: _111  and  _113
REMARK   43  A    between atoms: _113  and  _114
REMARK   44  A    between atoms: _116  and  _118
REMARK   45  A    between atoms: _118  and  _119
REMARK   46  A    between atoms: _122  and  _124
REMARK   47  A    between atoms: _124  and  _125
REMARK   48  A    between atoms: _124  and  _127
REMARK   49  A    between atoms: _127  and  _128
REMARK   50  A    between atoms: _131  and  _133
REMARK   51  A    between atoms: _133  and  _134
REMARK   52  A    between atoms: _133  and  _136
REMARK   53  A    between atoms: _136  and  _137
REMARK   54  A    between atoms: _139  and  _141
REMARK   55  A    between atoms: _141  and  _142
REMARK   56  A    between atoms: _145  and  _147
REMARK   57  A    between atoms: _147  and  _148
REMARK   58  A    between atoms: _147  and  _150
REMARK   59  A    between atoms: _150  and  _151
REMARK   60  A    between atoms: _156  and  _158
REMARK   61  A    between atoms: _158  and  _159
REMARK   62  A    between atoms: _158  and  _161
REMARK   63  A    between atoms: _161  and  _162
REMARK   64  A    between atoms: _162  and  _163
REMARK   65  A    between atoms: _166  and  _168
REMARK   66  A    between atoms: _168  and  _169
REMARK   67  A    between atoms: _168  and  _171
REMARK   68  A    between atoms: _171  and  _172
REMARK   69  A    between atoms: _177  and  _178
REMARK   70  A    between atoms: _180  and  _182
REMARK   71  A    between atoms: _182  and  _183
REMARK   72  A    between atoms: _182  and  _185
REMARK   73  A    between atoms: _185  and  _186
REMARK   74  A    between atoms: _191  and  _192
REMARK   75  A    between atoms: _195  and  _196
REMARK   76  A    between atoms: _201  and  _203
REMARK   77  A    between atoms: _203  and  _204
REMARK   78  A    between atoms: _206  and  _208
REMARK   79  A    between atoms: _208  and  _209
REMARK   80  A    between atoms: _208  and  _211
REMARK   81  A    between atoms: _211  and  _212
REMARK   82  A    between atoms: _218  and  _220
REMARK   83  A    between atoms: _220  and  _221
REMARK   84  A    between atoms: _220  and  _223
REMARK   85  A    between atoms: _223  and  _224
REMARK   86  A    between atoms: _224  and  _225
REMARK   87  A    between atoms: _225  and  _226
REMARK   88  A    between atoms: _235  and  _237
REMARK   89  A    between atoms: _237  and  _238
REMARK   90  A    between atoms: _237  and  _240
REMARK   91  A    between atoms: _240  and  _241
REMARK   92  A    between atoms: _244  and  _246
REMARK   93  A    between atoms: _246  and  _247
REMARK   94  A    between atoms: _246  and  _249
REMARK   95  A    between atoms: _249  and  _250
REMARK   96  A    between atoms: _253  and  _255
REMARK   97  A    between atoms: _255  and  _256
REMARK   98  A    between atoms: _255  and  _258
REMARK   99  A    between atoms: _261  and  _263
REMARK  100  A    between atoms: _263  and  _264
REMARK  101  A    between atoms: _263  and  _266
REMARK  102  A    between atoms: _266  and  _267
REMARK  103  A    between atoms: _270  and  _272
REMARK  104  A    between atoms: _272  and  _273
REMARK  105  A    between atoms: _272  and  _275
REMARK  106  A    between atoms: _275  and  _276
REMARK  107  A    between atoms: _282  and  _283
REMARK  108  A    between atoms: _288  and  _290
REMARK  109  A    between atoms: _290  and  _291
REMARK  110  A    between atoms: _290  and  _293
REMARK  111  A    between atoms: _293  and  _294
REMARK  112  A    between atoms: _296  and  _298
REMARK  113  A    between atoms: _298  and  _299
REMARK  114  A    between atoms: _298  and  _301
REMARK  115  A    between atoms: _301  and  _302
REMARK  116  A    between atoms: _308  and  _309
REMARK  117  A    between atoms: _314  and  _316
REMARK  118  A    between atoms: _316  and  _317
REMARK  119  A    between atoms: _316  and  _319
REMARK  120  A    between atoms: _319  and  _320
REMARK  121  A    between atoms: _323  and  _325
REMARK  122  A    between atoms: _325  and  _326
REMARK  123  A    between atoms: _325  and  _328
REMARK  124  A    between atoms: _328  and  _329
REMARK  125  A    between atoms: _329  and  _330
REMARK  126  A    between atoms: _333  and  _335
REMARK  127  A    between atoms: _335  and  _336
REMARK  128  A    between atoms: _335  and  _338
REMARK  129  A    between atoms: _338  and  _339
REMARK  130  A    between atoms: _342  and  _344
REMARK  131  A    between atoms: _344  and  _345
REMARK  132  A    between atoms: _344  and  _347
REMARK  133  A    between atoms: _347  and  _348
REMARK  134  A    between atoms: _353  and  _354
REMARK  135  A    between atoms: _356  and  _358
REMARK  136  A    between atoms: _358  and  _359
REMARK  137  A    between atoms: _358  and  _361
REMARK  138  A    between atoms: _364  and  _366
REMARK  139  A    between atoms: _366  and  _367
REMARK  140  A    between atoms: _366  and  _369
REMARK  141  A    between atoms: _369  and  _370
REMARK  142  A    between atoms: _375  and  _376
REMARK  143  A    between atoms: _378  and  _380
REMARK  144  A    between atoms: _380  and  _381
REMARK  145  A    between atoms: _380  and  _383
REMARK  146  A    between atoms: _383  and  _384
REMARK  147  A    between atoms: _386  and  _388
REMARK  148  A    between atoms: _388  and  _389
REMARK  149  A    between atoms: _388  and  _391
REMARK  150  A    between atoms: _391  and  _392
REMARK  151  A    between atoms: _395  and  _397
REMARK  152  A    between atoms: _397  and  _398
REMARK  153  A    between atoms: _397  and  _400
REMARK  154  A    between atoms: _400  and  _401
REMARK  155  A    between atoms: _403  and  _405
REMARK  156  A    between atoms: _405  and  _406
REMARK  157  A    between atoms: _405  and  _408
REMARK  158  A    between atoms: _408  and  _409
REMARK  159  A    between atoms: _409  and  _410
REMARK  160  A    between atoms: _410  and  _411
REMARK  161  A    between atoms: _411  and  _412
REMARK  162  A    between atoms: _416  and  _418
REMARK  163  A    between atoms: _418  and  _419
REMARK  164  A    between atoms: _418  and  _421
REMARK  165  A    between atoms: _421  and  _422
REMARK  166  A    between atoms: _426  and  _427
REMARK  167  A    between atoms: _432  and  _434
REMARK  168  A    between atoms: _434  and  _435
REMARK  169  A    between atoms: _437  and  _439
REMARK  170  A    between atoms: _439  and  _440
REMARK  171  A    between atoms: _439  and  _442
REMARK  172  A    between atoms: _442  and  _443
REMARK  173  A    between atoms: _449  and  _451
REMARK  174  A    between atoms: _451  and  _452
REMARK  175  A    between atoms: _451  and  _454
REMARK  176  A    between atoms: _454  and  _455
REMARK  177  A    between atoms: _455  and  _456
REMARK  178  A    between atoms: _456  and  _457
REMARK  179  A    between atoms: _466  and  _468
REMARK  180  A    between atoms: _468  and  _469
REMARK  181  A    between atoms: _468  and  _471
REMARK  182  A    between atoms: _474  and  _476
REMARK  183  A    between atoms: _476  and  _477
REMARK  184  A    between atoms: _479  and  _481
REMARK  185  A    between atoms: _481  and  _482
REMARK  186  A    between atoms: _485  and  _487
REMARK  187  A    between atoms: _487  and  _488
REMARK  188  A    between atoms: _487  and  _490
REMARK  189  A    between atoms: _490  and  _491
REMARK  190  A    between atoms: _494  and  _496
REMARK  191  A    between atoms: _496  and  _497
REMARK  192  A    between atoms: _496  and  _499
REMARK  193  A    between atoms: _499  and  _500
REMARK  194  A    between atoms: _506  and  _508
REMARK  195  A    between atoms: _508  and  _509
REMARK  196  A    between atoms: _508  and  _511
REMARK  197  A    between atoms: _511  and  _512
REMARK  198  A    between atoms: _514  and  _516
REMARK  199  A    between atoms: _516  and  _517
REMARK  200  A    between atoms: _516  and  _519
REMARK  201  A    between atoms: _521  and  _523
REMARK  202  A    between atoms: _523  and  _524
REMARK  203  A    between atoms: _523  and  _526
REMARK  204  A    between atoms: _526  and  _527
REMARK  205  A    between atoms: _527  and  _528
REMARK  206  A    between atoms: _528  and  _529
REMARK  207  A    between atoms: _538  and  _540
REMARK  208  A    between atoms: _540  and  _541
REMARK  209  A    between atoms: _540  and  _543
REMARK  210  A    between atoms: _545  and  _547
REMARK  211  A    between atoms: _547  and  _548
REMARK  212  A    between atoms: _547  and  _550
REMARK  213  A    between atoms: _550  and  _551
REMARK  214  A    between atoms: _556  and  _558
REMARK  215  A    between atoms: _558  and  _559
REMARK  216  A    between atoms: _558  and  _561
REMARK  217  A    between atoms: _561  and  _562
REMARK  218  A    between atoms: _565  and  _567
REMARK  219  A    between atoms: _567  and  _568
REMARK  220  A    between atoms: _567  and  _570
REMARK  221  A    between atoms: _570  and  _571
REMARK  222  A    between atoms: _571  and  _572
REMARK  223  A    between atoms: _577  and  _579
REMARK  224  A    between atoms: _579  and  _580
REMARK  225  A    between atoms: _579  and  _582
REMARK  226  A    between atoms: _582  and  _583
REMARK  227  A    between atoms: _586  and  _588
REMARK  228  A    between atoms: _588  and  _589
REMARK  229  A    between atoms: _588  and  _591
REMARK  230  A    between atoms: _591  and  _592
REMARK  231  A    between atoms: _597  and  _598
REMARK  232  A    between atoms: _600  and  _602
REMARK  233  A    between atoms: _602  and  _603
REMARK  234  A    between atoms: _602  and  _605
REMARK  235  A    between atoms: _605  and  _606
REMARK  236  A    between atoms: _608  and  _610
REMARK  237  A    between atoms: _610  and  _611
REMARK  238  A    between atoms: _610  and  _613
REMARK  239  A    between atoms: _613  and  _614
REMARK  240  A    between atoms: _620  and  _622
REMARK  241  A    between atoms: _622  and  _623
REMARK  242  A    between atoms: _622  and  _625
REMARK  243  A    between atoms: _625  and  _626
REMARK                            x       y       z     vdW  Elec       q    Type
REMARK                         _______ _______ _______ _____ _____    ______ ____
ROOT
ATOM      1  O   HOH     1      25.172  -5.814  16.978  0.00  0.00    +0.000 OA
ENDROOT
TORSDOF 0
REMARK  Name = ../refined-set-2016/1m7y/1m7y_pocket.pdb
REMARK  243 active torsions:
REMARK  status: ('A' for Active; 'I' for Inactive)
REMARK    1  A    between atoms: _1  and  _3
REMARK    2  A    between atoms: _3  and  _4
REMARK    3  A    between atoms: _3  and  _6
REMARK    4  A    between atoms: _6  and  _7
REMARK    5  A    between atoms: _12  and  _13
REMARK    6  A    between atoms: _15  and  _17
REMARK    7  A    between atoms: _17  and  _18
REMARK    8  A    between atoms: _17  and  _20
REMARK    9  A    between atoms: _20  and  _21
REMARK   10  A    between atoms: _27  and  _29
REMARK   11  A    between atoms: _29  and  _30
REMARK   12  A    between atoms: _29  and  _32
REMARK   13  A    between atoms: _32  and  _33
REMARK   14  A    between atoms: _43  and  _45
REMARK   15  A    between atoms: _45  and  _46
REMARK   16  A    between atoms: _45  and  _48
REMARK   17  A    between atoms: _48  and  _49
REMARK   18  A    between atoms: _49  and  _50
REMARK   19  A    between atoms: _55  and  _57
REMARK   20  A    between atoms: _57  and  _58
REMARK   21  A    between atoms: _60  and  _62
REMARK   22  A    between atoms: _62  and  _63
REMARK   23  A    between atoms: _62  and  _65
REMARK   24  A    between atoms: _65  and  _66
REMARK   25  A    between atoms: _69  and  _71
REMARK   26  A    between atoms: _71  and  _72
REMARK   27  A    between atoms: _75  and  _77
REMARK   28  A    between atoms: _77  and  _78
REMARK   29  A    between atoms: _77  and  _80
REMARK   30  A    between atoms: _80  and  _81
REMARK   31  A    between atoms: _81  and  _82
REMARK   32  A    between atoms: _85  and  _87
REMARK   33  A    between atoms: _87  and  _88
REMARK   34  A    between atoms: _87  and  _90
REMARK   35  A    between atoms: _90  and  _91
REMARK   36  A    between atoms: _96  and  _98
REMARK   37  A    between atoms: _98  and  _99
REMARK   38  A    between atoms: _98  and  _101
REMARK   39  A    between atoms: _101  and  _102
REMARK   40  A    between atoms: _105  and  _107
REMARK   41  A    between atoms: _107  and  _108
REMARK   42  A    between atoms: _111  and  _113
REMARK   43  A    between atoms: _113  and  _114
REMARK   44  A    between atoms: _116  and  _118
REMARK   45  A    between atoms: _118  and  _119
REMARK   46  A    between atoms: _122  and  _124
REMARK   47  A    between atoms: _124  and  _125
REMARK   48  A    between atoms: _124  and  _127
REMARK   49  A    between atoms: _127  and  _128
REMARK   50  A    between atoms: _131  and  _133
REMARK   51  A    between atoms: _133  and  _134
REMARK   52  A    between atoms: _133  and  _136
REMARK   53  A    between atoms: _136  and  _137
REMARK   54  A    between atoms: _139  and  _141
REMARK   55  A    between atoms: _141  and  _142
REMARK   56  A    between atoms: _145  and  _147
REMARK   57  A    between atoms: _147  and  _148
REMARK   58  A    between atoms: _147  and  _150
REMARK   59  A    between atoms: _150  and  _151
REMARK   60  A    between atoms: _156  and  _158
REMARK   61  A    between atoms: _158  and  _159
REMARK   62  A    between atoms: _158  and  _161
REMARK   63  A    between atoms: _161  and  _162
REMARK   64  A    between atoms: _162  and  _163
REMARK   65  A    between atoms: _166  and  _168
REMARK   66  A    between atoms: _168  and  _169
REMARK   67  A    between atoms: _168  and  _171
REMARK   68  A    between atoms: _171  and  _172
REMARK   69  A    between atoms: _177  and  _178
REMARK   70  A    between atoms: _180  and  _182
REMARK   71  A    between atoms: _182  and  _183
REMARK   72  A    between atoms: _182  and  _185
REMARK   73  A    between atoms: _185  and  _186
REMARK   74  A    between atoms: _191  and  _192
REMARK   75  A    between atoms: _195  and  _196
REMARK   76  A    between atoms: _201  and  _203
REMARK   77  A    between atoms: _203  and  _204
REMARK   78  A    between atoms: _206  and  _208
REMARK   79  A    between atoms: _208  and  _209
REMARK   80  A    between atoms: _208  and  _211
REMARK   81  A    between atoms: _211  and  _212
REMARK   82  A    between atoms: _218  and  _220
REMARK   83  A    between atoms: _220  and  _221
REMARK   84  A    between atoms: _220  and  _223
REMARK   85  A    between atoms: _223  and  _224
REMARK   86  A    between atoms: _224  and  _225
REMARK   87  A    between atoms: _225  and  _226
REMARK   88  A    between atoms: _235  and  _237
REMARK   89  A    between atoms: _237  and  _238
REMARK   90  A    between atoms: _237  and  _240
REMARK   91  A    between atoms: _240  and  _241
REMARK   92  A    between atoms: _244  and  _246
REMARK   93  A    between atoms: _246  and  _247
REMARK   94  A    between atoms: _246  and  _249
REMARK   95  A    between atoms: _249  and  _250
REMARK   96  A    between atoms: _253  and  _255
REMARK   97  A    between atoms: _255  and  _256
REMARK   98  A    between atoms: _255  and  _258
REMARK   99  A    between atoms: _261  and  _263
REMARK  100  A    between atoms: _263  and  _264
REMARK  101  A    between atoms: _263  and  _266
REMARK  102  A    between atoms: _266  and  _267
REMARK  103  A    between atoms: _270  and  _272
REMARK  104  A    between atoms: _272  and  _273
REMARK  105  A    between atoms: _272  and  _275
REMARK  106  A    between atoms: _275  and  _276
REMARK  107  A    between atoms: _282  and  _283
REMARK  108  A    between atoms: _288  and  _290
REMARK  109  A    between atoms: _290  and  _291
REMARK  110  A    between atoms: _290  and  _293
REMARK  111  A    between atoms: _293  and  _294
REMARK  112  A    between atoms: _296  and  _298
REMARK  113  A    between atoms: _298  and  _299
REMARK  114  A    between atoms: _298  and  _301
REMARK  115  A    between atoms: _301  and  _302
REMARK  116  A    between atoms: _308  and  _309
REMARK  117  A    between atoms: _314  and  _316
REMARK  118  A    between atoms: _316  and  _317
REMARK  119  A    between atoms: _316  and  _319
REMARK  120  A    between atoms: _319  and  _320
REMARK  121  A    between atoms: _323  and  _325
REMARK  122  A    between atoms: _325  and  _326
REMARK  123  A    between atoms: _325  and  _328
REMARK  124  A    between atoms: _328  and  _329
REMARK  125  A    between atoms: _329  and  _330
REMARK  126  A    between atoms: _333  and  _335
REMARK  127  A    between atoms: _335  and  _336
REMARK  128  A    between atoms: _335  and  _338
REMARK  129  A    between atoms: _338  and  _339
REMARK  130  A    between atoms: _342  and  _344
REMARK  131  A    between atoms: _344  and  _345
REMARK  132  A    between atoms: _344  and  _347
REMARK  133  A    between atoms: _347  and  _348
REMARK  134  A    between atoms: _353  and  _354
REMARK  135  A    between atoms: _356  and  _358
REMARK  136  A    between atoms: _358  and  _359
REMARK  137  A    between atoms: _358  and  _361
REMARK  138  A    between atoms: _364  and  _366
REMARK  139  A    between atoms: _366  and  _367
REMARK  140  A    between atoms: _366  and  _369
REMARK  141  A    between atoms: _369  and  _370
REMARK  142  A    between atoms: _375  and  _376
REMARK  143  A    between atoms: _378  and  _380
REMARK  144  A    between atoms: _380  and  _381
REMARK  145  A    between atoms: _380  and  _383
REMARK  146  A    between atoms: _383  and  _384
REMARK  147  A    between atoms: _386  and  _388
REMARK  148  A    between atoms: _388  and  _389
REMARK  149  A    between atoms: _388  and  _391
REMARK  150  A    between atoms: _391  and  _392
REMARK  151  A    between atoms: _395  and  _397
REMARK  152  A    between atoms: _397  and  _398
REMARK  153  A    between atoms: _397  and  _400
REMARK  154  A    between atoms: _400  and  _401
REMARK  155  A    between atoms: _403  and  _405
REMARK  156  A    between atoms: _405  and  _406
REMARK  157  A    between atoms: _405  and  _408
REMARK  158  A    between atoms: _408  and  _409
REMARK  159  A    between atoms: _409  and  _410
REMARK  160  A    between atoms: _410  and  _411
REMARK  161  A    between atoms: _411  and  _412
REMARK  162  A    between atoms: _416  and  _418
REMARK  163  A    between atoms: _418  and  _419
REMARK  164  A    between atoms: _418  and  _421
REMARK  165  A    between atoms: _421  and  _422
REMARK  166  A    between atoms: _426  and  _427
REMARK  167  A    between atoms: _432  and  _434
REMARK  168  A    between atoms: _434  and  _435
REMARK  169  A    between atoms: _437  and  _439
REMARK  170  A    between atoms: _439  and  _440
REMARK  171  A    between atoms: _439  and  _442
REMARK  172  A    between atoms: _442  and  _443
REMARK  173  A    between atoms: _449  and  _451
REMARK  174  A    between atoms: _451  and  _452
REMARK  175  A    between atoms: _451  and  _454
REMARK  176  A    between atoms: _454  and  _455
REMARK  177  A    between atoms: _455  and  _456
REMARK  178  A    between atoms: _456  and  _457
REMARK  179  A    between atoms: _466  and  _468
REMARK  180  A    between atoms: _468  and  _469
REMARK  181  A    between atoms: _468  and  _471
REMARK  182  A    between atoms: _474  and  _476
REMARK  183  A    between atoms: _476  and  _477
REMARK  184  A    between atoms: _479  and  _481
REMARK  185  A    between atoms: _481  and  _482
REMARK  186  A    between atoms: _485  and  _487
REMARK  187  A    between atoms: _487  and  _488
REMARK  188  A    between atoms: _487  and  _490
REMARK  189  A    between atoms: _490  and  _491
REMARK  190  A    between atoms: _494  and  _496
REMARK  191  A    between atoms: _496  and  _497
REMARK  192  A    between atoms: _496  and  _499
REMARK  193  A    between atoms: _499  and  _500
REMARK  194  A    between atoms: _506  and  _508
REMARK  195  A    between atoms: _508  and  _509
REMARK  196  A    between atoms: _508  and  _511
REMARK  197  A    between atoms: _511  and  _512
REMARK  198  A    between atoms: _514  and  _516
REMARK  199  A    between atoms: _516  and  _517
REMARK  200  A    between atoms: _516  and  _519
REMARK  201  A    between atoms: _521  and  _523
REMARK  202  A    between atoms: _523  and  _524
REMARK  203  A    between atoms: _523  and  _526
REMARK  204  A    between atoms: _526  and  _527
REMARK  205  A    between atoms: _527  and  _528
REMARK  206  A    between atoms: _528  and  _529
REMARK  207  A    between atoms: _538  and  _540
REMARK  208  A    between atoms: _540  and  _541
REMARK  209  A    between atoms: _540  and  _543
REMARK  210  A    between atoms: _545  and  _547
REMARK  211  A    between atoms: _547  and  _548
REMARK  212  A    between atoms: _547  and  _550
REMARK  213  A    between atoms: _550  and  _551
REMARK  214  A    between atoms: _556  and  _558
REMARK  215  A    between atoms: _558  and  _559
REMARK  216  A    between atoms: _558  and  _561
REMARK  217  A    between atoms: _561  and  _562
REMARK  218  A    between atoms: _565  and  _567
REMARK  219  A    between atoms: _567  and  _568
REMARK  220  A    between atoms: _567  and  _570
REMARK  221  A    between atoms: _570  and  _571
REMARK  222  A    between atoms: _571  and  _572
REMARK  223  A    between atoms: _577  and  _579
REMARK  224  A    between atoms: _579  and  _580
REMARK  225  A    between atoms: _579  and  _582
REMARK  226  A    between atoms: _582  and  _583
REMARK  227  A    between atoms: _586  and  _588
REMARK  228  A    between atoms: _588  and  _589
REMARK  229  A    between atoms: _588  and  _591
REMARK  230  A    between atoms: _591  and  _592
REMARK  231  A    between atoms: _597  and  _598
REMARK  232  A    between atoms: _600  and  _602
REMARK  233  A    between atoms: _602  and  _603
REMARK  234  A    between atoms: _602  and  _605
REMARK  235  A    between atoms: _605  and  _606
REMARK  236  A    between atoms: _608  and  _610
REMARK  237  A    between atoms: _610  and  _611
REMARK  238  A    between atoms: _610  and  _613
REMARK  239  A    between atoms: _613  and  _614
REMARK  240  A    between atoms: _620  and  _622
REMARK  241  A    between atoms: _622  and  _623
REMARK  242  A    between atoms: _622  and  _625
REMARK  243  A    between atoms: _625  and  _626
REMARK                            x       y       z     vdW  Elec       q    Type
REMARK                         _______ _______ _______ _____ _____    ______ ____
ROOT
ATOM      1  O   HOH     1      21.443   3.367  24.416  0.00  0.00    +0.000 OA
ENDROOT
TORSDOF 0
REMARK  Name = ../refined-set-2016/1m7y/1m7y_pocket.pdb
REMARK  243 active torsions:
REMARK  status: ('A' for Active; 'I' for Inactive)
REMARK    1  A    between atoms: _1  and  _3
REMARK    2  A    between atoms: _3  and  _4
REMARK    3  A    between atoms: _3  and  _6
REMARK    4  A    between atoms: _6  and  _7
REMARK    5  A    between atoms: _12  and  _13
REMARK    6  A    between atoms: _15  and  _17
REMARK    7  A    between atoms: _17  and  _18
REMARK    8  A    between atoms: _17  and  _20
REMARK    9  A    between atoms: _20  and  _21
REMARK   10  A    between atoms: _27  and  _29
REMARK   11  A    between atoms: _29  and  _30
REMARK   12  A    between atoms: _29  and  _32
REMARK   13  A    between atoms: _32  and  _33
REMARK   14  A    between atoms: _43  and  _45
REMARK   15  A    between atoms: _45  and  _46
REMARK   16  A    between atoms: _45  and  _48
REMARK   17  A    between atoms: _48  and  _49
REMARK   18  A    between atoms: _49  and  _50
REMARK   19  A    between atoms: _55  and  _57
REMARK   20  A    between atoms: _57  and  _58
REMARK   21  A    between atoms: _60  and  _62
REMARK   22  A    between atoms: _62  and  _63
REMARK   23  A    between atoms: _62  and  _65
REMARK   24  A    between atoms: _65  and  _66
REMARK   25  A    between atoms: _69  and  _71
REMARK   26  A    between atoms: _71  and  _72
REMARK   27  A    between atoms: _75  and  _77
REMARK   28  A    between atoms: _77  and  _78
REMARK   29  A    between atoms: _77  and  _80
REMARK   30  A    between atoms: _80  and  _81
REMARK   31  A    between atoms: _81  and  _82
REMARK   32  A    between atoms: _85  and  _87
REMARK   33  A    between atoms: _87  and  _88
REMARK   34  A    between atoms: _87  and  _90
REMARK   35  A    between atoms: _90  and  _91
REMARK   36  A    between atoms: _96  and  _98
REMARK   37  A    between atoms: _98  and  _99
REMARK   38  A    between atoms: _98  and  _101
REMARK   39  A    between atoms: _101  and  _102
REMARK   40  A    between atoms: _105  and  _107
REMARK   41  A    between atoms: _107  and  _108
REMARK   42  A    between atoms: _111  and  _113
REMARK   43  A    between atoms: _113  and  _114
REMARK   44  A    between atoms: _116  and  _118
REMARK   45  A    between atoms: _118  and  _119
REMARK   46  A    between atoms: _122  and  _124
REMARK   47  A    between atoms: _124  and  _125
REMARK   48  A    between atoms: _124  and  _127
REMARK   49  A    between atoms: _127  and  _128
REMARK   50  A    between atoms: _131  and  _133
REMARK   51  A    between atoms: _133  and  _134
REMARK   52  A    between atoms: _133  and  _136
REMARK   53  A    between atoms: _136  and  _137
REMARK   54  A    between atoms: _139  and  _141
REMARK   55  A    between atoms: _141  and  _142
REMARK   56  A    between atoms: _145  and  _147
REMARK   57  A    between atoms: _147  and  _148
REMARK   58  A    between atoms: _147  and  _150
REMARK   59  A    between atoms: _150  and  _151
REMARK   60  A    between atoms: _156  and  _158
REMARK   61  A    between atoms: _158  and  _159
REMARK   62  A    between atoms: _158  and  _161
REMARK   63  A    between atoms: _161  and  _162
REMARK   64  A    between atoms: _162  and  _163
REMARK   65  A    between atoms: _166  and  _168
REMARK   66  A    between atoms: _168  and  _169
REMARK   67  A    between atoms: _168  and  _171
REMARK   68  A    between atoms: _171  and  _172
REMARK   69  A    between atoms: _177  and  _178
REMARK   70  A    between atoms: _180  and  _182
REMARK   71  A    between atoms: _182  and  _183
REMARK   72  A    between atoms: _182  and  _185
REMARK   73  A    between atoms: _185  and  _186
REMARK   74  A    between atoms: _191  and  _192
REMARK   75  A    between atoms: _195  and  _196
REMARK   76  A    between atoms: _201  and  _203
REMARK   77  A    between atoms: _203  and  _204
REMARK   78  A    between atoms: _206  and  _208
REMARK   79  A    between atoms: _208  and  _209
REMARK   80  A    between atoms: _208  and  _211
REMARK   81  A    between atoms: _211  and  _212
REMARK   82  A    between atoms: _218  and  _220
REMARK   83  A    between atoms: _220  and  _221
REMARK   84  A    between atoms: _220  and  _223
REMARK   85  A    between atoms: _223  and  _224
REMARK   86  A    between atoms: _224  and  _225
REMARK   87  A    between atoms: _225  and  _226
REMARK   88  A    between atoms: _235  and  _237
REMARK   89  A    between atoms: _237  and  _238
REMARK   90  A    between atoms: _237  and  _240
REMARK   91  A    between atoms: _240  and  _241
REMARK   92  A    between atoms: _244  and  _246
REMARK   93  A    between atoms: _246  and  _247
REMARK   94  A    between atoms: _246  and  _249
REMARK   95  A    between atoms: _249  and  _250
REMARK   96  A    between atoms: _253  and  _255
REMARK   97  A    between atoms: _255  and  _256
REMARK   98  A    between atoms: _255  and  _258
REMARK   99  A    between atoms: _261  and  _263
REMARK  100  A    between atoms: _263  and  _264
REMARK  101  A    between atoms: _263  and  _266
REMARK  102  A    between atoms: _266  and  _267
REMARK  103  A    between atoms: _270  and  _272
REMARK  104  A    between atoms: _272  and  _273
REMARK  105  A    between atoms: _272  and  _275
REMARK  106  A    between atoms: _275  and  _276
REMARK  107  A    between atoms: _282  and  _283
REMARK  108  A    between atoms: _288  and  _290
REMARK  109  A    between atoms: _290  and  _291
REMARK  110  A    between atoms: _290  and  _293
REMARK  111  A    between atoms: _293  and  _294
REMARK  112  A    between atoms: _296  and  _298
REMARK  113  A    between atoms: _298  and  _299
REMARK  114  A    between atoms: _298  and  _301
REMARK  115  A    between atoms: _301  and  _302
REMARK  116  A    between atoms: _308  and  _309
REMARK  117  A    between atoms: _314  and  _316
REMARK  118  A    between atoms: _316  and  _317
REMARK  119  A    between atoms: _316  and  _319
REMARK  120  A    between atoms: _319  and  _320
REMARK  121  A    between atoms: _323  and  _325
REMARK  122  A    between atoms: _325  and  _326
REMARK  123  A    between atoms: _325  and  _328
REMARK  124  A    between atoms: _328  and  _329
REMARK  125  A    between atoms: _329  and  _330
REMARK  126  A    between atoms: _333  and  _335
REMARK  127  A    between atoms: _335  and  _336
REMARK  128  A    between atoms: _335  and  _338
REMARK  129  A    between atoms: _338  and  _339
REMARK  130  A    between atoms: _342  and  _344
REMARK  131  A    between atoms: _344  and  _345
REMARK  132  A    between atoms: _344  and  _347
REMARK  133  A    between atoms: _347  and  _348
REMARK  134  A    between atoms: _353  and  _354
REMARK  135  A    between atoms: _356  and  _358
REMARK  136  A    between atoms: _358  and  _359
REMARK  137  A    between atoms: _358  and  _361
REMARK  138  A    between atoms: _364  and  _366
REMARK  139  A    between atoms: _366  and  _367
REMARK  140  A    between atoms: _366  and  _369
REMARK  141  A    between atoms: _369  and  _370
REMARK  142  A    between atoms: _375  and  _376
REMARK  143  A    between atoms: _378  and  _380
REMARK  144  A    between atoms: _380  and  _381
REMARK  145  A    between atoms: _380  and  _383
REMARK  146  A    between atoms: _383  and  _384
REMARK  147  A    between atoms: _386  and  _388
REMARK  148  A    between atoms: _388  and  _389
REMARK  149  A    between atoms: _388  and  _391
REMARK  150  A    between atoms: _391  and  _392
REMARK  151  A    between atoms: _395  and  _397
REMARK  152  A    between atoms: _397  and  _398
REMARK  153  A    between atoms: _397  and  _400
REMARK  154  A    between atoms: _400  and  _401
REMARK  155  A    between atoms: _403  and  _405
REMARK  156  A    between atoms: _405  and  _406
REMARK  157  A    between atoms: _405  and  _408
REMARK  158  A    between atoms: _408  and  _409
REMARK  159  A    between atoms: _409  and  _410
REMARK  160  A    between atoms: _410  and  _411
REMARK  161  A    between atoms: _411  and  _412
REMARK  162  A    between atoms: _416  and  _418
REMARK  163  A    between atoms: _418  and  _419
REMARK  164  A    between atoms: _418  and  _421
REMARK  165  A    between atoms: _421  and  _422
REMARK  166  A    between atoms: _426  and  _427
REMARK  167  A    between atoms: _432  and  _434
REMARK  168  A    between atoms: _434  and  _435
REMARK  169  A    between atoms: _437  and  _439
REMARK  170  A    between atoms: _439  and  _440
REMARK  171  A    between atoms: _439  and  _442
REMARK  172  A    between atoms: _442  and  _443
REMARK  173  A    between atoms: _449  and  _451
REMARK  174  A    between atoms: _451  and  _452
REMARK  175  A    between atoms: _451  and  _454
REMARK  176  A    between atoms: _454  and  _455
REMARK  177  A    between atoms: _455  and  _456
REMARK  178  A    between atoms: _456  and  _457
REMARK  179  A    between atoms: _466  and  _468
REMARK  180  A    between atoms: _468  and  _469
REMARK  181  A    between atoms: _468  and  _471
REMARK  182  A    between atoms: _474  and  _476
REMARK  183  A    between atoms: _476  and  _477
REMARK  184  A    between atoms: _479  and  _481
REMARK  185  A    between atoms: _481  and  _482
REMARK  186  A    between atoms: _485  and  _487
REMARK  187  A    between atoms: _487  and  _488
REMARK  188  A    between atoms: _487  and  _490
REMARK  189  A    between atoms: _490  and  _491
REMARK  190  A    between atoms: _494  and  _496
REMARK  191  A    between atoms: _496  and  _497
REMARK  192  A    between atoms: _496  and  _499
REMARK  193  A    between atoms: _499  and  _500
REMARK  194  A    between atoms: _506  and  _508
REMARK  195  A    between atoms: _508  and  _509
REMARK  196  A    between atoms: _508  and  _511
REMARK  197  A    between atoms: _511  and  _512
REMARK  198  A    between atoms: _514  and  _516
REMARK  199  A    between atoms: _516  and  _517
REMARK  200  A    between atoms: _516  and  _519
REMARK  201  A    between atoms: _521  and  _523
REMARK  202  A    between atoms: _523  and  _524
REMARK  203  A    between atoms: _523  and  _526
REMARK  204  A    between atoms: _526  and  _527
REMARK  205  A    between atoms: _527  and  _528
REMARK  206  A    between atoms: _528  and  _529
REMARK  207  A    between atoms: _538  and  _540
REMARK  208  A    between atoms: _540  and  _541
REMARK  209  A    between atoms: _540  and  _543
REMARK  210  A    between atoms: _545  and  _547
REMARK  211  A    between atoms: _547  and  _548
REMARK  212  A    between atoms: _547  and  _550
REMARK  213  A    between atoms: _550  and  _551
REMARK  214  A    between atoms: _556  and  _558
REMARK  215  A    between atoms: _558  and  _559
REMARK  216  A    between atoms: _558  and  _561
REMARK  217  A    between atoms: _561  and  _562
REMARK  218  A    between atoms: _565  and  _567
REMARK  219  A    between atoms: _567  and  _568
REMARK  220  A    between atoms: _567  and  _570
REMARK  221  A    between atoms: _570  and  _571
REMARK  222  A    between atoms: _571  and  _572
REMARK  223  A    between atoms: _577  and  _579
REMARK  224  A    between atoms: _579  and  _580
REMARK  225  A    between atoms: _579  and  _582
REMARK  226  A    between atoms: _582  and  _583
REMARK  227  A    between atoms: _586  and  _588
REMARK  228  A    between atoms: _588  and  _589
REMARK  229  A    between atoms: _588  and  _591
REMARK  230  A    between atoms: _591  and  _592
REMARK  231  A    between atoms: _597  and  _598
REMARK  232  A    between atoms: _600  and  _602
REMARK  233  A    between atoms: _602  and  _603
REMARK  234  A    between atoms: _602  and  _605
REMARK  235  A    between atoms: _605  and  _606
REMARK  236  A    between atoms: _608  and  _610
REMARK  237  A    between atoms: _610  and  _611
REMARK  238  A    between atoms: _610  and  _613
REMARK  239  A    between atoms: _613  and  _614
REMARK  240  A    between atoms: _620  and  _622
REMARK  241  A    between atoms: _622  and  _623
REMARK  242  A    between atoms: _622  and  _625
REMARK  243  A    between atoms: _625  and  _626
REMARK                            x       y       z     vdW  Elec       q    Type
REMARK                         _______ _______ _______ _____ _____    ______ ____
ROOT
ATOM      1  O   HOH     1      20.455   8.973  12.313  0.00  0.00    +0.000 OA
ENDROOT
TORSDOF 0
REMARK  Name = ../refined-set-2016/1m7y/1m7y_pocket.pdb
REMARK  243 active torsions:
REMARK  status: ('A' for Active; 'I' for Inactive)
REMARK    1  A    between atoms: _1  and  _3
REMARK    2  A    between atoms: _3  and  _4
REMARK    3  A    between atoms: _3  and  _6
REMARK    4  A    between atoms: _6  and  _7
REMARK    5  A    between atoms: _12  and  _13
REMARK    6  A    between atoms: _15  and  _17
REMARK    7  A    between atoms: _17  and  _18
REMARK    8  A    between atoms: _17  and  _20
REMARK    9  A    between atoms: _20  and  _21
REMARK   10  A    between atoms: _27  and  _29
REMARK   11  A    between atoms: _29  and  _30
REMARK   12  A    between atoms: _29  and  _32
REMARK   13  A    between atoms: _32  and  _33
REMARK   14  A    between atoms: _43  and  _45
REMARK   15  A    between atoms: _45  and  _46
REMARK   16  A    between atoms: _45  and  _48
REMARK   17  A    between atoms: _48  and  _49
REMARK   18  A    between atoms: _49  and  _50
REMARK   19  A    between atoms: _55  and  _57
REMARK   20  A    between atoms: _57  and  _58
REMARK   21  A    between atoms: _60  and  _62
REMARK   22  A    between atoms: _62  and  _63
REMARK   23  A    between atoms: _62  and  _65
REMARK   24  A    between atoms: _65  and  _66
REMARK   25  A    between atoms: _69  and  _71
REMARK   26  A    between atoms: _71  and  _72
REMARK   27  A    between atoms: _75  and  _77
REMARK   28  A    between atoms: _77  and  _78
REMARK   29  A    between atoms: _77  and  _80
REMARK   30  A    between atoms: _80  and  _81
REMARK   31  A    between atoms: _81  and  _82
REMARK   32  A    between atoms: _85  and  _87
REMARK   33  A    between atoms: _87  and  _88
REMARK   34  A    between atoms: _87  and  _90
REMARK   35  A    between atoms: _90  and  _91
REMARK   36  A    between atoms: _96  and  _98
REMARK   37  A    between atoms: _98  and  _99
REMARK   38  A    between atoms: _98  and  _101
REMARK   39  A    between atoms: _101  and  _102
REMARK   40  A    between atoms: _105  and  _107
REMARK   41  A    between atoms: _107  and  _108
REMARK   42  A    between atoms: _111  and  _113
REMARK   43  A    between atoms: _113  and  _114
REMARK   44  A    between atoms: _116  and  _118
REMARK   45  A    between atoms: _118  and  _119
REMARK   46  A    between atoms: _122  and  _124
REMARK   47  A    between atoms: _124  and  _125
REMARK   48  A    between atoms: _124  and  _127
REMARK   49  A    between atoms: _127  and  _128
REMARK   50  A    between atoms: _131  and  _133
REMARK   51  A    between atoms: _133  and  _134
REMARK   52  A    between atoms: _133  and  _136
REMARK   53  A    between atoms: _136  and  _137
REMARK   54  A    between atoms: _139  and  _141
REMARK   55  A    between atoms: _141  and  _142
REMARK   56  A    between atoms: _145  and  _147
REMARK   57  A    between atoms: _147  and  _148
REMARK   58  A    between atoms: _147  and  _150
REMARK   59  A    between atoms: _150  and  _151
REMARK   60  A    between atoms: _156  and  _158
REMARK   61  A    between atoms: _158  and  _159
REMARK   62  A    between atoms: _158  and  _161
REMARK   63  A    between atoms: _161  and  _162
REMARK   64  A    between atoms: _162  and  _163
REMARK   65  A    between atoms: _166  and  _168
REMARK   66  A    between atoms: _168  and  _169
REMARK   67  A    between atoms: _168  and  _171
REMARK   68  A    between atoms: _171  and  _172
REMARK   69  A    between atoms: _177  and  _178
REMARK   70  A    between atoms: _180  and  _182
REMARK   71  A    between atoms: _182  and  _183
REMARK   72  A    between atoms: _182  and  _185
REMARK   73  A    between atoms: _185  and  _186
REMARK   74  A    between atoms: _191  and  _192
REMARK   75  A    between atoms: _195  and  _196
REMARK   76  A    between atoms: _201  and  _203
REMARK   77  A    between atoms: _203  and  _204
REMARK   78  A    between atoms: _206  and  _208
REMARK   79  A    between atoms: _208  and  _209
REMARK   80  A    between atoms: _208  and  _211
REMARK   81  A    between atoms: _211  and  _212
REMARK   82  A    between atoms: _218  and  _220
REMARK   83  A    between atoms: _220  and  _221
REMARK   84  A    between atoms: _220  and  _223
REMARK   85  A    between atoms: _223  and  _224
REMARK   86  A    between atoms: _224  and  _225
REMARK   87  A    between atoms: _225  and  _226
REMARK   88  A    between atoms: _235  and  _237
REMARK   89  A    between atoms: _237  and  _238
REMARK   90  A    between atoms: _237  and  _240
REMARK   91  A    between atoms: _240  and  _241
REMARK   92  A    between atoms: _244  and  _246
REMARK   93  A    between atoms: _246  and  _247
REMARK   94  A    between atoms: _246  and  _249
REMARK   95  A    between atoms: _249  and  _250
REMARK   96  A    between atoms: _253  and  _255
REMARK   97  A    between atoms: _255  and  _256
REMARK   98  A    between atoms: _255  and  _258
REMARK   99  A    between atoms: _261  and  _263
REMARK  100  A    between atoms: _263  and  _264
REMARK  101  A    between atoms: _263  and  _266
REMARK  102  A    between atoms: _266  and  _267
REMARK  103  A    between atoms: _270  and  _272
REMARK  104  A    between atoms: _272  and  _273
REMARK  105  A    between atoms: _272  and  _275
REMARK  106  A    between atoms: _275  and  _276
REMARK  107  A    between atoms: _282  and  _283
REMARK  108  A    between atoms: _288  and  _290
REMARK  109  A    between atoms: _290  and  _291
REMARK  110  A    between atoms: _290  and  _293
REMARK  111  A    between atoms: _293  and  _294
REMARK  112  A    between atoms: _296  and  _298
REMARK  113  A    between atoms: _298  and  _299
REMARK  114  A    between atoms: _298  and  _301
REMARK  115  A    between atoms: _301  and  _302
REMARK  116  A    between atoms: _308  and  _309
REMARK  117  A    between atoms: _314  and  _316
REMARK  118  A    between atoms: _316  and  _317
REMARK  119  A    between atoms: _316  and  _319
REMARK  120  A    between atoms: _319  and  _320
REMARK  121  A    between atoms: _323  and  _325
REMARK  122  A    between atoms: _325  and  _326
REMARK  123  A    between atoms: _325  and  _328
REMARK  124  A    between atoms: _328  and  _329
REMARK  125  A    between atoms: _329  and  _330
REMARK  126  A    between atoms: _333  and  _335
REMARK  127  A    between atoms: _335  and  _336
REMARK  128  A    between atoms: _335  and  _338
REMARK  129  A    between atoms: _338  and  _339
REMARK  130  A    between atoms: _342  and  _344
REMARK  131  A    between atoms: _344  and  _345
REMARK  132  A    between atoms: _344  and  _347
REMARK  133  A    between atoms: _347  and  _348
REMARK  134  A    between atoms: _353  and  _354
REMARK  135  A    between atoms: _356  and  _358
REMARK  136  A    between atoms: _358  and  _359
REMARK  137  A    between atoms: _358  and  _361
REMARK  138  A    between atoms: _364  and  _366
REMARK  139  A    between atoms: _366  and  _367
REMARK  140  A    between atoms: _366  and  _369
REMARK  141  A    between atoms: _369  and  _370
REMARK  142  A    between atoms: _375  and  _376
REMARK  143  A    between atoms: _378  and  _380
REMARK  144  A    between atoms: _380  and  _381
REMARK  145  A    between atoms: _380  and  _383
REMARK  146  A    between atoms: _383  and  _384
REMARK  147  A    between atoms: _386  and  _388
REMARK  148  A    between atoms: _388  and  _389
REMARK  149  A    between atoms: _388  and  _391
REMARK  150  A    between atoms: _391  and  _392
REMARK  151  A    between atoms: _395  and  _397
REMARK  152  A    between atoms: _397  and  _398
REMARK  153  A    between atoms: _397  and  _400
REMARK  154  A    between atoms: _400  and  _401
REMARK  155  A    between atoms: _403  and  _405
REMARK  156  A    between atoms: _405  and  _406
REMARK  157  A    between atoms: _405  and  _408
REMARK  158  A    between atoms: _408  and  _409
REMARK  159  A    between atoms: _409  and  _410
REMARK  160  A    between atoms: _410  and  _411
REMARK  161  A    between atoms: _411  and  _412
REMARK  162  A    between atoms: _416  and  _418
REMARK  163  A    between atoms: _418  and  _419
REMARK  164  A    between atoms: _418  and  _421
REMARK  165  A    between atoms: _421  and  _422
REMARK  166  A    between atoms: _426  and  _427
REMARK  167  A    between atoms: _432  and  _434
REMARK  168  A    between atoms: _434  and  _435
REMARK  169  A    between atoms: _437  and  _439
REMARK  170  A    between atoms: _439  and  _440
REMARK  171  A    between atoms: _439  and  _442
REMARK  172  A    between atoms: _442  and  _443
REMARK  173  A    between atoms: _449  and  _451
REMARK  174  A    between atoms: _451  and  _452
REMARK  175  A    between atoms: _451  and  _454
REMARK  176  A    between atoms: _454  and  _455
REMARK  177  A    between atoms: _455  and  _456
REMARK  178  A    between atoms: _456  and  _457
REMARK  179  A    between atoms: _466  and  _468
REMARK  180  A    between atoms: _468  and  _469
REMARK  181  A    between atoms: _468  and  _471
REMARK  182  A    between atoms: _474  and  _476
REMARK  183  A    between atoms: _476  and  _477
REMARK  184  A    between atoms: _479  and  _481
REMARK  185  A    between atoms: _481  and  _482
REMARK  186  A    between atoms: _485  and  _487
REMARK  187  A    between atoms: _487  and  _488
REMARK  188  A    between atoms: _487  and  _490
REMARK  189  A    between atoms: _490  and  _491
REMARK  190  A    between atoms: _494  and  _496
REMARK  191  A    between atoms: _496  and  _497
REMARK  192  A    between atoms: _496  and  _499
REMARK  193  A    between atoms: _499  and  _500
REMARK  194  A    between atoms: _506  and  _508
REMARK  195  A    between atoms: _508  and  _509
REMARK  196  A    between atoms: _508  and  _511
REMARK  197  A    between atoms: _511  and  _512
REMARK  198  A    between atoms: _514  and  _516
REMARK  199  A    between atoms: _516  and  _517
REMARK  200  A    between atoms: _516  and  _519
REMARK  201  A    between atoms: _521  and  _523
REMARK  202  A    between atoms: _523  and  _524
REMARK  203  A    between atoms: _523  and  _526
REMARK  204  A    between atoms: _526  and  _527
REMARK  205  A    between atoms: _527  and  _528
REMARK  206  A    between atoms: _528  and  _529
REMARK  207  A    between atoms: _538  and  _540
REMARK  208  A    between atoms: _540  and  _541
REMARK  209  A    between atoms: _540  and  _543
REMARK  210  A    between atoms: _545  and  _547
REMARK  211  A    between atoms: _547  and  _548
REMARK  212  A    between atoms: _547  and  _550
REMARK  213  A    between atoms: _550  and  _551
REMARK  214  A    between atoms: _556  and  _558
REMARK  215  A    between atoms: _558  and  _559
REMARK  216  A    between atoms: _558  and  _561
REMARK  217  A    between atoms: _561  and  _562
REMARK  218  A    between atoms: _565  and  _567
REMARK  219  A    between atoms: _567  and  _568
REMARK  220  A    between atoms: _567  and  _570
REMARK  221  A    between atoms: _570  and  _571
REMARK  222  A    between atoms: _571  and  _572
REMARK  223  A    between atoms: _577  and  _579
REMARK  224  A    between atoms: _579  and  _580
REMARK  225  A    between atoms: _579  and  _582
REMARK  226  A    between atoms: _582  and  _583
REMARK  227  A    between atoms: _586  and  _588
REMARK  228  A    between atoms: _588  and  _589
REMARK  229  A    between atoms: _588  and  _591
REMARK  230  A    between atoms: _591  and  _592
REMARK  231  A    between atoms: _597  and  _598
REMARK  232  A    between atoms: _600  and  _602
REMARK  233  A    between atoms: _602  and  _603
REMARK  234  A    between atoms: _602  and  _605
REMARK  235  A    between atoms: _605  and  _606
REMARK  236  A    between atoms: _608  and  _610
REMARK  237  A    between atoms: _610  and  _611
REMARK  238  A    between atoms: _610  and  _613
REMARK  239  A    between atoms: _613  and  _614
REMARK  240  A    between atoms: _620  and  _622
REMARK  241  A    between atoms: _622  and  _623
REMARK  242  A    between atoms: _622  and  _625
REMARK  243  A    between atoms: _625  and  _626
REMARK                            x       y       z     vdW  Elec       q    Type
REMARK                         _______ _______ _______ _____ _____    ______ ____
ROOT
ATOM      1  O   HOH     1      19.273  -8.203  20.514  0.00  0.00    +0.000 OA
ENDROOT
TORSDOF 0
REMARK  Name = ../refined-set-2016/1m7y/1m7y_pocket.pdb
REMARK  243 active torsions:
REMARK  status: ('A' for Active; 'I' for Inactive)
REMARK    1  A    between atoms: _1  and  _3
REMARK    2  A    between atoms: _3  and  _4
REMARK    3  A    between atoms: _3  and  _6
REMARK    4  A    between atoms: _6  and  _7
REMARK    5  A    between atoms: _12  and  _13
REMARK    6  A    between atoms: _15  and  _17
REMARK    7  A    between atoms: _17  and  _18
REMARK    8  A    between atoms: _17  and  _20
REMARK    9  A    between atoms: _20  and  _21
REMARK   10  A    between atoms: _27  and  _29
REMARK   11  A    between atoms: _29  and  _30
REMARK   12  A    between atoms: _29  and  _32
REMARK   13  A    between atoms: _32  and  _33
REMARK   14  A    between atoms: _43  and  _45
REMARK   15  A    between atoms: _45  and  _46
REMARK   16  A    between atoms: _45  and  _48
REMARK   17  A    between atoms: _48  and  _49
REMARK   18  A    between atoms: _49  and  _50
REMARK   19  A    between atoms: _55  and  _57
REMARK   20  A    between atoms: _57  and  _58
REMARK   21  A    between atoms: _60  and  _62
REMARK   22  A    between atoms: _62  and  _63
REMARK   23  A    between atoms: _62  and  _65
REMARK   24  A    between atoms: _65  and  _66
REMARK   25  A    between atoms: _69  and  _71
REMARK   26  A    between atoms: _71  and  _72
REMARK   27  A    between atoms: _75  and  _77
REMARK   28  A    between atoms: _77  and  _78
REMARK   29  A    between atoms: _77  and  _80
REMARK   30  A    between atoms: _80  and  _81
REMARK   31  A    between atoms: _81  and  _82
REMARK   32  A    between atoms: _85  and  _87
REMARK   33  A    between atoms: _87  and  _88
REMARK   34  A    between atoms: _87  and  _90
REMARK   35  A    between atoms: _90  and  _91
REMARK   36  A    between atoms: _96  and  _98
REMARK   37  A    between atoms: _98  and  _99
REMARK   38  A    between atoms: _98  and  _101
REMARK   39  A    between atoms: _101  and  _102
REMARK   40  A    between atoms: _105  and  _107
REMARK   41  A    between atoms: _107  and  _108
REMARK   42  A    between atoms: _111  and  _113
REMARK   43  A    between atoms: _113  and  _114
REMARK   44  A    between atoms: _116  and  _118
REMARK   45  A    between atoms: _118  and  _119
REMARK   46  A    between atoms: _122  and  _124
REMARK   47  A    between atoms: _124  and  _125
REMARK   48  A    between atoms: _124  and  _127
REMARK   49  A    between atoms: _127  and  _128
REMARK   50  A    between atoms: _131  and  _133
REMARK   51  A    between atoms: _133  and  _134
REMARK   52  A    between atoms: _133  and  _136
REMARK   53  A    between atoms: _136  and  _137
REMARK   54  A    between atoms: _139  and  _141
REMARK   55  A    between atoms: _141  and  _142
REMARK   56  A    between atoms: _145  and  _147
REMARK   57  A    between atoms: _147  and  _148
REMARK   58  A    between atoms: _147  and  _150
REMARK   59  A    between atoms: _150  and  _151
REMARK   60  A    between atoms: _156  and  _158
REMARK   61  A    between atoms: _158  and  _159
REMARK   62  A    between atoms: _158  and  _161
REMARK   63  A    between atoms: _161  and  _162
REMARK   64  A    between atoms: _162  and  _163
REMARK   65  A    between atoms: _166  and  _168
REMARK   66  A    between atoms: _168  and  _169
REMARK   67  A    between atoms: _168  and  _171
REMARK   68  A    between atoms: _171  and  _172
REMARK   69  A    between atoms: _177  and  _178
REMARK   70  A    between atoms: _180  and  _182
REMARK   71  A    between atoms: _182  and  _183
REMARK   72  A    between atoms: _182  and  _185
REMARK   73  A    between atoms: _185  and  _186
REMARK   74  A    between atoms: _191  and  _192
REMARK   75  A    between atoms: _195  and  _196
REMARK   76  A    between atoms: _201  and  _203
REMARK   77  A    between atoms: _203  and  _204
REMARK   78  A    between atoms: _206  and  _208
REMARK   79  A    between atoms: _208  and  _209
REMARK   80  A    between atoms: _208  and  _211
REMARK   81  A    between atoms: _211  and  _212
REMARK   82  A    between atoms: _218  and  _220
REMARK   83  A    between atoms: _220  and  _221
REMARK   84  A    between atoms: _220  and  _223
REMARK   85  A    between atoms: _223  and  _224
REMARK   86  A    between atoms: _224  and  _225
REMARK   87  A    between atoms: _225  and  _226
REMARK   88  A    between atoms: _235  and  _237
REMARK   89  A    between atoms: _237  and  _238
REMARK   90  A    between atoms: _237  and  _240
REMARK   91  A    between atoms: _240  and  _241
REMARK   92  A    between atoms: _244  and  _246
REMARK   93  A    between atoms: _246  and  _247
REMARK   94  A    between atoms: _246  and  _249
REMARK   95  A    between atoms: _249  and  _250
REMARK   96  A    between atoms: _253  and  _255
REMARK   97  A    between atoms: _255  and  _256
REMARK   98  A    between atoms: _255  and  _258
REMARK   99  A    between atoms: _261  and  _263
REMARK  100  A    between atoms: _263  and  _264
REMARK  101  A    between atoms: _263  and  _266
REMARK  102  A    between atoms: _266  and  _267
REMARK  103  A    between atoms: _270  and  _272
REMARK  104  A    between atoms: _272  and  _273
REMARK  105  A    between atoms: _272  and  _275
REMARK  106  A    between atoms: _275  and  _276
REMARK  107  A    between atoms: _282  and  _283
REMARK  108  A    between atoms: _288  and  _290
REMARK  109  A    between atoms: _290  and  _291
REMARK  110  A    between atoms: _290  and  _293
REMARK  111  A    between atoms: _293  and  _294
REMARK  112  A    between atoms: _296  and  _298
REMARK  113  A    between atoms: _298  and  _299
REMARK  114  A    between atoms: _298  and  _301
REMARK  115  A    between atoms: _301  and  _302
REMARK  116  A    between atoms: _308  and  _309
REMARK  117  A    between atoms: _314  and  _316
REMARK  118  A    between atoms: _316  and  _317
REMARK  119  A    between atoms: _316  and  _319
REMARK  120  A    between atoms: _319  and  _320
REMARK  121  A    between atoms: _323  and  _325
REMARK  122  A    between atoms: _325  and  _326
REMARK  123  A    between atoms: _325  and  _328
REMARK  124  A    between atoms: _328  and  _329
REMARK  125  A    between atoms: _329  and  _330
REMARK  126  A    between atoms: _333  and  _335
REMARK  127  A    between atoms: _335  and  _336
REMARK  128  A    between atoms: _335  and  _338
REMARK  129  A    between atoms: _338  and  _339
REMARK  130  A    between atoms: _342  and  _344
REMARK  131  A    between atoms: _344  and  _345
REMARK  132  A    between atoms: _344  and  _347
REMARK  133  A    between atoms: _347  and  _348
REMARK  134  A    between atoms: _353  and  _354
REMARK  135  A    between atoms: _356  and  _358
REMARK  136  A    between atoms: _358  and  _359
REMARK  137  A    between atoms: _358  and  _361
REMARK  138  A    between atoms: _364  and  _366
REMARK  139  A    between atoms: _366  and  _367
REMARK  140  A    between atoms: _366  and  _369
REMARK  141  A    between atoms: _369  and  _370
REMARK  142  A    between atoms: _375  and  _376
REMARK  143  A    between atoms: _378  and  _380
REMARK  144  A    between atoms: _380  and  _381
REMARK  145  A    between atoms: _380  and  _383
REMARK  146  A    between atoms: _383  and  _384
REMARK  147  A    between atoms: _386  and  _388
REMARK  148  A    between atoms: _388  and  _389
REMARK  149  A    between atoms: _388  and  _391
REMARK  150  A    between atoms: _391  and  _392
REMARK  151  A    between atoms: _395  and  _397
REMARK  152  A    between atoms: _397  and  _398
REMARK  153  A    between atoms: _397  and  _400
REMARK  154  A    between atoms: _400  and  _401
REMARK  155  A    between atoms: _403  and  _405
REMARK  156  A    between atoms: _405  and  _406
REMARK  157  A    between atoms: _405  and  _408
REMARK  158  A    between atoms: _408  and  _409
REMARK  159  A    between atoms: _409  and  _410
REMARK  160  A    between atoms: _410  and  _411
REMARK  161  A    between atoms: _411  and  _412
REMARK  162  A    between atoms: _416  and  _418
REMARK  163  A    between atoms: _418  and  _419
REMARK  164  A    between atoms: _418  and  _421
REMARK  165  A    between atoms: _421  and  _422
REMARK  166  A    between atoms: _426  and  _427
REMARK  167  A    between atoms: _432  and  _434
REMARK  168  A    between atoms: _434  and  _435
REMARK  169  A    between atoms: _437  and  _439
REMARK  170  A    between atoms: _439  and  _440
REMARK  171  A    between atoms: _439  and  _442
REMARK  172  A    between atoms: _442  and  _443
REMARK  173  A    between atoms: _449  and  _451
REMARK  174  A    between atoms: _451  and  _452
REMARK  175  A    between atoms: _451  and  _454
REMARK  176  A    between atoms: _454  and  _455
REMARK  177  A    between atoms: _455  and  _456
REMARK  178  A    between atoms: _456  and  _457
REMARK  179  A    between atoms: _466  and  _468
REMARK  180  A    between atoms: _468  and  _469
REMARK  181  A    between atoms: _468  and  _471
REMARK  182  A    between atoms: _474  and  _476
REMARK  183  A    between atoms: _476  and  _477
REMARK  184  A    between atoms: _479  and  _481
REMARK  185  A    between atoms: _481  and  _482
REMARK  186  A    between atoms: _485  and  _487
REMARK  187  A    between atoms: _487  and  _488
REMARK  188  A    between atoms: _487  and  _490
REMARK  189  A    between atoms: _490  and  _491
REMARK  190  A    between atoms: _494  and  _496
REMARK  191  A    between atoms: _496  and  _497
REMARK  192  A    between atoms: _496  and  _499
REMARK  193  A    between atoms: _499  and  _500
REMARK  194  A    between atoms: _506  and  _508
REMARK  195  A    between atoms: _508  and  _509
REMARK  196  A    between atoms: _508  and  _511
REMARK  197  A    between atoms: _511  and  _512
REMARK  198  A    between atoms: _514  and  _516
REMARK  199  A    between atoms: _516  and  _517
REMARK  200  A    between atoms: _516  and  _519
REMARK  201  A    between atoms: _521  and  _523
REMARK  202  A    between atoms: _523  and  _524
REMARK  203  A    between atoms: _523  and  _526
REMARK  204  A    between atoms: _526  and  _527
REMARK  205  A    between atoms: _527  and  _528
REMARK  206  A    between atoms: _528  and  _529
REMARK  207  A    between atoms: _538  and  _540
REMARK  208  A    between atoms: _540  and  _541
REMARK  209  A    between atoms: _540  and  _543
REMARK  210  A    between atoms: _545  and  _547
REMARK  211  A    between atoms: _547  and  _548
REMARK  212  A    between atoms: _547  and  _550
REMARK  213  A    between atoms: _550  and  _551
REMARK  214  A    between atoms: _556  and  _558
REMARK  215  A    between atoms: _558  and  _559
REMARK  216  A    between atoms: _558  and  _561
REMARK  217  A    between atoms: _561  and  _562
REMARK  218  A    between atoms: _565  and  _567
REMARK  219  A    between atoms: _567  and  _568
REMARK  220  A    between atoms: _567  and  _570
REMARK  221  A    between atoms: _570  and  _571
REMARK  222  A    between atoms: _571  and  _572
REMARK  223  A    between atoms: _577  and  _579
REMARK  224  A    between atoms: _579  and  _580
REMARK  225  A    between atoms: _579  and  _582
REMARK  226  A    between atoms: _582  and  _583
REMARK  227  A    between atoms: _586  and  _588
REMARK  228  A    between atoms: _588  and  _589
REMARK  229  A    between atoms: _588  and  _591
REMARK  230  A    between atoms: _591  and  _592
REMARK  231  A    between atoms: _597  and  _598
REMARK  232  A    between atoms: _600  and  _602
REMARK  233  A    between atoms: _602  and  _603
REMARK  234  A    between atoms: _602  and  _605
REMARK  235  A    between atoms: _605  and  _606
REMARK  236  A    between atoms: _608  and  _610
REMARK  237  A    between atoms: _610  and  _611
REMARK  238  A    between atoms: _610  and  _613
REMARK  239  A    between atoms: _613  and  _614
REMARK  240  A    between atoms: _620  and  _622
REMARK  241  A    between atoms: _622  and  _623
REMARK  242  A    between atoms: _622  and  _625
REMARK  243  A    between atoms: _625  and  _626
REMARK                            x       y       z     vdW  Elec       q    Type
REMARK                         _______ _______ _______ _____ _____    ______ ____
ROOT
ATOM      1  O   HOH     1      26.498  -6.748  23.789  0.00  0.00    +0.000 OA
ENDROOT
TORSDOF 0
REMARK  Name = ../refined-set-2016/1m7y/1m7y_pocket.pdb
REMARK  243 active torsions:
REMARK  status: ('A' for Active; 'I' for Inactive)
REMARK    1  A    between atoms: _1  and  _3
REMARK    2  A    between atoms: _3  and  _4
REMARK    3  A    between atoms: _3  and  _6
REMARK    4  A    between atoms: _6  and  _7
REMARK    5  A    between atoms: _12  and  _13
REMARK    6  A    between atoms: _15  and  _17
REMARK    7  A    between atoms: _17  and  _18
REMARK    8  A    between atoms: _17  and  _20
REMARK    9  A    between atoms: _20  and  _21
REMARK   10  A    between atoms: _27  and  _29
REMARK   11  A    between atoms: _29  and  _30
REMARK   12  A    between atoms: _29  and  _32
REMARK   13  A    between atoms: _32  and  _33
REMARK   14  A    between atoms: _43  and  _45
REMARK   15  A    between atoms: _45  and  _46
REMARK   16  A    between atoms: _45  and  _48
REMARK   17  A    between atoms: _48  and  _49
REMARK   18  A    between atoms: _49  and  _50
REMARK   19  A    between atoms: _55  and  _57
REMARK   20  A    between atoms: _57  and  _58
REMARK   21  A    between atoms: _60  and  _62
REMARK   22  A    between atoms: _62  and  _63
REMARK   23  A    between atoms: _62  and  _65
REMARK   24  A    between atoms: _65  and  _66
REMARK   25  A    between atoms: _69  and  _71
REMARK   26  A    between atoms: _71  and  _72
REMARK   27  A    between atoms: _75  and  _77
REMARK   28  A    between atoms: _77  and  _78
REMARK   29  A    between atoms: _77  and  _80
REMARK   30  A    between atoms: _80  and  _81
REMARK   31  A    between atoms: _81  and  _82
REMARK   32  A    between atoms: _85  and  _87
REMARK   33  A    between atoms: _87  and  _88
REMARK   34  A    between atoms: _87  and  _90
REMARK   35  A    between atoms: _90  and  _91
REMARK   36  A    between atoms: _96  and  _98
REMARK   37  A    between atoms: _98  and  _99
REMARK   38  A    between atoms: _98  and  _101
REMARK   39  A    between atoms: _101  and  _102
REMARK   40  A    between atoms: _105  and  _107
REMARK   41  A    between atoms: _107  and  _108
REMARK   42  A    between atoms: _111  and  _113
REMARK   43  A    between atoms: _113  and  _114
REMARK   44  A    between atoms: _116  and  _118
REMARK   45  A    between atoms: _118  and  _119
REMARK   46  A    between atoms: _122  and  _124
REMARK   47  A    between atoms: _124  and  _125
REMARK   48  A    between atoms: _124  and  _127
REMARK   49  A    between atoms: _127  and  _128
REMARK   50  A    between atoms: _131  and  _133
REMARK   51  A    between atoms: _133  and  _134
REMARK   52  A    between atoms: _133  and  _136
REMARK   53  A    between atoms: _136  and  _137
REMARK   54  A    between atoms: _139  and  _141
REMARK   55  A    between atoms: _141  and  _142
REMARK   56  A    between atoms: _145  and  _147
REMARK   57  A    between atoms: _147  and  _148
REMARK   58  A    between atoms: _147  and  _150
REMARK   59  A    between atoms: _150  and  _151
REMARK   60  A    between atoms: _156  and  _158
REMARK   61  A    between atoms: _158  and  _159
REMARK   62  A    between atoms: _158  and  _161
REMARK   63  A    between atoms: _161  and  _162
REMARK   64  A    between atoms: _162  and  _163
REMARK   65  A    between atoms: _166  and  _168
REMARK   66  A    between atoms: _168  and  _169
REMARK   67  A    between atoms: _168  and  _171
REMARK   68  A    between atoms: _171  and  _172
REMARK   69  A    between atoms: _177  and  _178
REMARK   70  A    between atoms: _180  and  _182
REMARK   71  A    between atoms: _182  and  _183
REMARK   72  A    between atoms: _182  and  _185
REMARK   73  A    between atoms: _185  and  _186
REMARK   74  A    between atoms: _191  and  _192
REMARK   75  A    between atoms: _195  and  _196
REMARK   76  A    between atoms: _201  and  _203
REMARK   77  A    between atoms: _203  and  _204
REMARK   78  A    between atoms: _206  and  _208
REMARK   79  A    between atoms: _208  and  _209
REMARK   80  A    between atoms: _208  and  _211
REMARK   81  A    between atoms: _211  and  _212
REMARK   82  A    between atoms: _218  and  _220
REMARK   83  A    between atoms: _220  and  _221
REMARK   84  A    between atoms: _220  and  _223
REMARK   85  A    between atoms: _223  and  _224
REMARK   86  A    between atoms: _224  and  _225
REMARK   87  A    between atoms: _225  and  _226
REMARK   88  A    between atoms: _235  and  _237
REMARK   89  A    between atoms: _237  and  _238
REMARK   90  A    between atoms: _237  and  _240
REMARK   91  A    between atoms: _240  and  _241
REMARK   92  A    between atoms: _244  and  _246
REMARK   93  A    between atoms: _246  and  _247
REMARK   94  A    between atoms: _246  and  _249
REMARK   95  A    between atoms: _249  and  _250
REMARK   96  A    between atoms: _253  and  _255
REMARK   97  A    between atoms: _255  and  _256
REMARK   98  A    between atoms: _255  and  _258
REMARK   99  A    between atoms: _261  and  _263
REMARK  100  A    between atoms: _263  and  _264
REMARK  101  A    between atoms: _263  and  _266
REMARK  102  A    between atoms: _266  and  _267
REMARK  103  A    between atoms: _270  and  _272
REMARK  104  A    between atoms: _272  and  _273
REMARK  105  A    between atoms: _272  and  _275
REMARK  106  A    between atoms: _275  and  _276
REMARK  107  A    between atoms: _282  and  _283
REMARK  108  A    between atoms: _288  and  _290
REMARK  109  A    between atoms: _290  and  _291
REMARK  110  A    between atoms: _290  and  _293
REMARK  111  A    between atoms: _293  and  _294
REMARK  112  A    between atoms: _296  and  _298
REMARK  113  A    between atoms: _298  and  _299
REMARK  114  A    between atoms: _298  and  _301
REMARK  115  A    between atoms: _301  and  _302
REMARK  116  A    between atoms: _308  and  _309
REMARK  117  A    between atoms: _314  and  _316
REMARK  118  A    between atoms: _316  and  _317
REMARK  119  A    between atoms: _316  and  _319
REMARK  120  A    between atoms: _319  and  _320
REMARK  121  A    between atoms: _323  and  _325
REMARK  122  A    between atoms: _325  and  _326
REMARK  123  A    between atoms: _325  and  _328
REMARK  124  A    between atoms: _328  and  _329
REMARK  125  A    between atoms: _329  and  _330
REMARK  126  A    between atoms: _333  and  _335
REMARK  127  A    between atoms: _335  and  _336
REMARK  128  A    between atoms: _335  and  _338
REMARK  129  A    between atoms: _338  and  _339
REMARK  130  A    between atoms: _342  and  _344
REMARK  131  A    between atoms: _344  and  _345
REMARK  132  A    between atoms: _344  and  _347
REMARK  133  A    between atoms: _347  and  _348
REMARK  134  A    between atoms: _353  and  _354
REMARK  135  A    between atoms: _356  and  _358
REMARK  136  A    between atoms: _358  and  _359
REMARK  137  A    between atoms: _358  and  _361
REMARK  138  A    between atoms: _364  and  _366
REMARK  139  A    between atoms: _366  and  _367
REMARK  140  A    between atoms: _366  and  _369
REMARK  141  A    between atoms: _369  and  _370
REMARK  142  A    between atoms: _375  and  _376
REMARK  143  A    between atoms: _378  and  _380
REMARK  144  A    between atoms: _380  and  _381
REMARK  145  A    between atoms: _380  and  _383
REMARK  146  A    between atoms: _383  and  _384
REMARK  147  A    between atoms: _386  and  _388
REMARK  148  A    between atoms: _388  and  _389
REMARK  149  A    between atoms: _388  and  _391
REMARK  150  A    between atoms: _391  and  _392
REMARK  151  A    between atoms: _395  and  _397
REMARK  152  A    between atoms: _397  and  _398
REMARK  153  A    between atoms: _397  and  _400
REMARK  154  A    between atoms: _400  and  _401
REMARK  155  A    between atoms: _403  and  _405
REMARK  156  A    between atoms: _405  and  _406
REMARK  157  A    between atoms: _405  and  _408
REMARK  158  A    between atoms: _408  and  _409
REMARK  159  A    between atoms: _409  and  _410
REMARK  160  A    between atoms: _410  and  _411
REMARK  161  A    between atoms: _411  and  _412
REMARK  162  A    between atoms: _416  and  _418
REMARK  163  A    between atoms: _418  and  _419
REMARK  164  A    between atoms: _418  and  _421
REMARK  165  A    between atoms: _421  and  _422
REMARK  166  A    between atoms: _426  and  _427
REMARK  167  A    between atoms: _432  and  _434
REMARK  168  A    between atoms: _434  and  _435
REMARK  169  A    between atoms: _437  and  _439
REMARK  170  A    between atoms: _439  and  _440
REMARK  171  A    between atoms: _439  and  _442
REMARK  172  A    between atoms: _442  and  _443
REMARK  173  A    between atoms: _449  and  _451
REMARK  174  A    between atoms: _451  and  _452
REMARK  175  A    between atoms: _451  and  _454
REMARK  176  A    between atoms: _454  and  _455
REMARK  177  A    between atoms: _455  and  _456
REMARK  178  A    between atoms: _456  and  _457
REMARK  179  A    between atoms: _466  and  _468
REMARK  180  A    between atoms: _468  and  _469
REMARK  181  A    between atoms: _468  and  _471
REMARK  182  A    between atoms: _474  and  _476
REMARK  183  A    between atoms: _476  and  _477
REMARK  184  A    between atoms: _479  and  _481
REMARK  185  A    between atoms: _481  and  _482
REMARK  186  A    between atoms: _485  and  _487
REMARK  187  A    between atoms: _487  and  _488
REMARK  188  A    between atoms: _487  and  _490
REMARK  189  A    between atoms: _490  and  _491
REMARK  190  A    between atoms: _494  and  _496
REMARK  191  A    between atoms: _496  and  _497
REMARK  192  A    between atoms: _496  and  _499
REMARK  193  A    between atoms: _499  and  _500
REMARK  194  A    between atoms: _506  and  _508
REMARK  195  A    between atoms: _508  and  _509
REMARK  196  A    between atoms: _508  and  _511
REMARK  197  A    between atoms: _511  and  _512
REMARK  198  A    between atoms: _514  and  _516
REMARK  199  A    between atoms: _516  and  _517
REMARK  200  A    between atoms: _516  and  _519
REMARK  201  A    between atoms: _521  and  _523
REMARK  202  A    between atoms: _523  and  _524
REMARK  203  A    between atoms: _523  and  _526
REMARK  204  A    between atoms: _526  and  _527
REMARK  205  A    between atoms: _527  and  _528
REMARK  206  A    between atoms: _528  and  _529
REMARK  207  A    between atoms: _538  and  _540
REMARK  208  A    between atoms: _540  and  _541
REMARK  209  A    between atoms: _540  and  _543
REMARK  210  A    between atoms: _545  and  _547
REMARK  211  A    between atoms: _547  and  _548
REMARK  212  A    between atoms: _547  and  _550
REMARK  213  A    between atoms: _550  and  _551
REMARK  214  A    between atoms: _556  and  _558
REMARK  215  A    between atoms: _558  and  _559
REMARK  216  A    between atoms: _558  and  _561
REMARK  217  A    between atoms: _561  and  _562
REMARK  218  A    between atoms: _565  and  _567
REMARK  219  A    between atoms: _567  and  _568
REMARK  220  A    between atoms: _567  and  _570
REMARK  221  A    between atoms: _570  and  _571
REMARK  222  A    between atoms: _571  and  _572
REMARK  223  A    between atoms: _577  and  _579
REMARK  224  A    between atoms: _579  and  _580
REMARK  225  A    between atoms: _579  and  _582
REMARK  226  A    between atoms: _582  and  _583
REMARK  227  A    between atoms: _586  and  _588
REMARK  228  A    between atoms: _588  and  _589
REMARK  229  A    between atoms: _588  and  _591
REMARK  230  A    between atoms: _591  and  _592
REMARK  231  A    between atoms: _597  and  _598
REMARK  232  A    between atoms: _600  and  _602
REMARK  233  A    between atoms: _602  and  _603
REMARK  234  A    between atoms: _602  and  _605
REMARK  235  A    between atoms: _605  and  _606
REMARK  236  A    between atoms: _608  and  _610
REMARK  237  A    between atoms: _610  and  _611
REMARK  238  A    between atoms: _610  and  _613
REMARK  239  A    between atoms: _613  and  _614
REMARK  240  A    between atoms: _620  and  _622
REMARK  241  A    between atoms: _622  and  _623
REMARK  242  A    between atoms: _622  and  _625
REMARK  243  A    between atoms: _625  and  _626
REMARK                            x       y       z     vdW  Elec       q    Type
REMARK                         _______ _______ _______ _____ _____    ______ ____
ROOT
ATOM      1  O   HOH     1      20.039   6.589  14.454  0.00  0.00    +0.000 OA
ENDROOT
TORSDOF 0
REMARK  Name = ../refined-set-2016/1m7y/1m7y_pocket.pdb
REMARK  243 active torsions:
REMARK  status: ('A' for Active; 'I' for Inactive)
REMARK    1  A    between atoms: _1  and  _3
REMARK    2  A    between atoms: _3  and  _4
REMARK    3  A    between atoms: _3  and  _6
REMARK    4  A    between atoms: _6  and  _7
REMARK    5  A    between atoms: _12  and  _13
REMARK    6  A    between atoms: _15  and  _17
REMARK    7  A    between atoms: _17  and  _18
REMARK    8  A    between atoms: _17  and  _20
REMARK    9  A    between atoms: _20  and  _21
REMARK   10  A    between atoms: _27  and  _29
REMARK   11  A    between atoms: _29  and  _30
REMARK   12  A    between atoms: _29  and  _32
REMARK   13  A    between atoms: _32  and  _33
REMARK   14  A    between atoms: _43  and  _45
REMARK   15  A    between atoms: _45  and  _46
REMARK   16  A    between atoms: _45  and  _48
REMARK   17  A    between atoms: _48  and  _49
REMARK   18  A    between atoms: _49  and  _50
REMARK   19  A    between atoms: _55  and  _57
REMARK   20  A    between atoms: _57  and  _58
REMARK   21  A    between atoms: _60  and  _62
REMARK   22  A    between atoms: _62  and  _63
REMARK   23  A    between atoms: _62  and  _65
REMARK   24  A    between atoms: _65  and  _66
REMARK   25  A    between atoms: _69  and  _71
REMARK   26  A    between atoms: _71  and  _72
REMARK   27  A    between atoms: _75  and  _77
REMARK   28  A    between atoms: _77  and  _78
REMARK   29  A    between atoms: _77  and  _80
REMARK   30  A    between atoms: _80  and  _81
REMARK   31  A    between atoms: _81  and  _82
REMARK   32  A    between atoms: _85  and  _87
REMARK   33  A    between atoms: _87  and  _88
REMARK   34  A    between atoms: _87  and  _90
REMARK   35  A    between atoms: _90  and  _91
REMARK   36  A    between atoms: _96  and  _98
REMARK   37  A    between atoms: _98  and  _99
REMARK   38  A    between atoms: _98  and  _101
REMARK   39  A    between atoms: _101  and  _102
REMARK   40  A    between atoms: _105  and  _107
REMARK   41  A    between atoms: _107  and  _108
REMARK   42  A    between atoms: _111  and  _113
REMARK   43  A    between atoms: _113  and  _114
REMARK   44  A    between atoms: _116  and  _118
REMARK   45  A    between atoms: _118  and  _119
REMARK   46  A    between atoms: _122  and  _124
REMARK   47  A    between atoms: _124  and  _125
REMARK   48  A    between atoms: _124  and  _127
REMARK   49  A    between atoms: _127  and  _128
REMARK   50  A    between atoms: _131  and  _133
REMARK   51  A    between atoms: _133  and  _134
REMARK   52  A    between atoms: _133  and  _136
REMARK   53  A    between atoms: _136  and  _137
REMARK   54  A    between atoms: _139  and  _141
REMARK   55  A    between atoms: _141  and  _142
REMARK   56  A    between atoms: _145  and  _147
REMARK   57  A    between atoms: _147  and  _148
REMARK   58  A    between atoms: _147  and  _150
REMARK   59  A    between atoms: _150  and  _151
REMARK   60  A    between atoms: _156  and  _158
REMARK   61  A    between atoms: _158  and  _159
REMARK   62  A    between atoms: _158  and  _161
REMARK   63  A    between atoms: _161  and  _162
REMARK   64  A    between atoms: _162  and  _163
REMARK   65  A    between atoms: _166  and  _168
REMARK   66  A    between atoms: _168  and  _169
REMARK   67  A    between atoms: _168  and  _171
REMARK   68  A    between atoms: _171  and  _172
REMARK   69  A    between atoms: _177  and  _178
REMARK   70  A    between atoms: _180  and  _182
REMARK   71  A    between atoms: _182  and  _183
REMARK   72  A    between atoms: _182  and  _185
REMARK   73  A    between atoms: _185  and  _186
REMARK   74  A    between atoms: _191  and  _192
REMARK   75  A    between atoms: _195  and  _196
REMARK   76  A    between atoms: _201  and  _203
REMARK   77  A    between atoms: _203  and  _204
REMARK   78  A    between atoms: _206  and  _208
REMARK   79  A    between atoms: _208  and  _209
REMARK   80  A    between atoms: _208  and  _211
REMARK   81  A    between atoms: _211  and  _212
REMARK   82  A    between atoms: _218  and  _220
REMARK   83  A    between atoms: _220  and  _221
REMARK   84  A    between atoms: _220  and  _223
REMARK   85  A    between atoms: _223  and  _224
REMARK   86  A    between atoms: _224  and  _225
REMARK   87  A    between atoms: _225  and  _226
REMARK   88  A    between atoms: _235  and  _237
REMARK   89  A    between atoms: _237  and  _238
REMARK   90  A    between atoms: _237  and  _240
REMARK   91  A    between atoms: _240  and  _241
REMARK   92  A    between atoms: _244  and  _246
REMARK   93  A    between atoms: _246  and  _247
REMARK   94  A    between atoms: _246  and  _249
REMARK   95  A    between atoms: _249  and  _250
REMARK   96  A    between atoms: _253  and  _255
REMARK   97  A    between atoms: _255  and  _256
REMARK   98  A    between atoms: _255  and  _258
REMARK   99  A    between atoms: _261  and  _263
REMARK  100  A    between atoms: _263  and  _264
REMARK  101  A    between atoms: _263  and  _266
REMARK  102  A    between atoms: _266  and  _267
REMARK  103  A    between atoms: _270  and  _272
REMARK  104  A    between atoms: _272  and  _273
REMARK  105  A    between atoms: _272  and  _275
REMARK  106  A    between atoms: _275  and  _276
REMARK  107  A    between atoms: _282  and  _283
REMARK  108  A    between atoms: _288  and  _290
REMARK  109  A    between atoms: _290  and  _291
REMARK  110  A    between atoms: _290  and  _293
REMARK  111  A    between atoms: _293  and  _294
REMARK  112  A    between atoms: _296  and  _298
REMARK  113  A    between atoms: _298  and  _299
REMARK  114  A    between atoms: _298  and  _301
REMARK  115  A    between atoms: _301  and  _302
REMARK  116  A    between atoms: _308  and  _309
REMARK  117  A    between atoms: _314  and  _316
REMARK  118  A    between atoms: _316  and  _317
REMARK  119  A    between atoms: _316  and  _319
REMARK  120  A    between atoms: _319  and  _320
REMARK  121  A    between atoms: _323  and  _325
REMARK  122  A    between atoms: _325  and  _326
REMARK  123  A    between atoms: _325  and  _328
REMARK  124  A    between atoms: _328  and  _329
REMARK  125  A    between atoms: _329  and  _330
REMARK  126  A    between atoms: _333  and  _335
REMARK  127  A    between atoms: _335  and  _336
REMARK  128  A    between atoms: _335  and  _338
REMARK  129  A    between atoms: _338  and  _339
REMARK  130  A    between atoms: _342  and  _344
REMARK  131  A    between atoms: _344  and  _345
REMARK  132  A    between atoms: _344  and  _347
REMARK  133  A    between atoms: _347  and  _348
REMARK  134  A    between atoms: _353  and  _354
REMARK  135  A    between atoms: _356  and  _358
REMARK  136  A    between atoms: _358  and  _359
REMARK  137  A    between atoms: _358  and  _361
REMARK  138  A    between atoms: _364  and  _366
REMARK  139  A    between atoms: _366  and  _367
REMARK  140  A    between atoms: _366  and  _369
REMARK  141  A    between atoms: _369  and  _370
REMARK  142  A    between atoms: _375  and  _376
REMARK  143  A    between atoms: _378  and  _380
REMARK  144  A    between atoms: _380  and  _381
REMARK  145  A    between atoms: _380  and  _383
REMARK  146  A    between atoms: _383  and  _384
REMARK  147  A    between atoms: _386  and  _388
REMARK  148  A    between atoms: _388  and  _389
REMARK  149  A    between atoms: _388  and  _391
REMARK  150  A    between atoms: _391  and  _392
REMARK  151  A    between atoms: _395  and  _397
REMARK  152  A    between atoms: _397  and  _398
REMARK  153  A    between atoms: _397  and  _400
REMARK  154  A    between atoms: _400  and  _401
REMARK  155  A    between atoms: _403  and  _405
REMARK  156  A    between atoms: _405  and  _406
REMARK  157  A    between atoms: _405  and  _408
REMARK  158  A    between atoms: _408  and  _409
REMARK  159  A    between atoms: _409  and  _410
REMARK  160  A    between atoms: _410  and  _411
REMARK  161  A    between atoms: _411  and  _412
REMARK  162  A    between atoms: _416  and  _418
REMARK  163  A    between atoms: _418  and  _419
REMARK  164  A    between atoms: _418  and  _421
REMARK  165  A    between atoms: _421  and  _422
REMARK  166  A    between atoms: _426  and  _427
REMARK  167  A    between atoms: _432  and  _434
REMARK  168  A    between atoms: _434  and  _435
REMARK  169  A    between atoms: _437  and  _439
REMARK  170  A    between atoms: _439  and  _440
REMARK  171  A    between atoms: _439  and  _442
REMARK  172  A    between atoms: _442  and  _443
REMARK  173  A    between atoms: _449  and  _451
REMARK  174  A    between atoms: _451  and  _452
REMARK  175  A    between atoms: _451  and  _454
REMARK  176  A    between atoms: _454  and  _455
REMARK  177  A    between atoms: _455  and  _456
REMARK  178  A    between atoms: _456  and  _457
REMARK  179  A    between atoms: _466  and  _468
REMARK  180  A    between atoms: _468  and  _469
REMARK  181  A    between atoms: _468  and  _471
REMARK  182  A    between atoms: _474  and  _476
REMARK  183  A    between atoms: _476  and  _477
REMARK  184  A    between atoms: _479  and  _481
REMARK  185  A    between atoms: _481  and  _482
REMARK  186  A    between atoms: _485  and  _487
REMARK  187  A    between atoms: _487  and  _488
REMARK  188  A    between atoms: _487  and  _490
REMARK  189  A    between atoms: _490  and  _491
REMARK  190  A    between atoms: _494  and  _496
REMARK  191  A    between atoms: _496  and  _497
REMARK  192  A    between atoms: _496  and  _499
REMARK  193  A    between atoms: _499  and  _500
REMARK  194  A    between atoms: _506  and  _508
REMARK  195  A    between atoms: _508  and  _509
REMARK  196  A    between atoms: _508  and  _511
REMARK  197  A    between atoms: _511  and  _512
REMARK  198  A    between atoms: _514  and  _516
REMARK  199  A    between atoms: _516  and  _517
REMARK  200  A    between atoms: _516  and  _519
REMARK  201  A    between atoms: _521  and  _523
REMARK  202  A    between atoms: _523  and  _524
REMARK  203  A    between atoms: _523  and  _526
REMARK  204  A    between atoms: _526  and  _527
REMARK  205  A    between atoms: _527  and  _528
REMARK  206  A    between atoms: _528  and  _529
REMARK  207  A    between atoms: _538  and  _540
REMARK  208  A    between atoms: _540  and  _541
REMARK  209  A    between atoms: _540  and  _543
REMARK  210  A    between atoms: _545  and  _547
REMARK  211  A    between atoms: _547  and  _548
REMARK  212  A    between atoms: _547  and  _550
REMARK  213  A    between atoms: _550  and  _551
REMARK  214  A    between atoms: _556  and  _558
REMARK  215  A    between atoms: _558  and  _559
REMARK  216  A    between atoms: _558  and  _561
REMARK  217  A    between atoms: _561  and  _562
REMARK  218  A    between atoms: _565  and  _567
REMARK  219  A    between atoms: _567  and  _568
REMARK  220  A    between atoms: _567  and  _570
REMARK  221  A    between atoms: _570  and  _571
REMARK  222  A    between atoms: _571  and  _572
REMARK  223  A    between atoms: _577  and  _579
REMARK  224  A    between atoms: _579  and  _580
REMARK  225  A    between atoms: _579  and  _582
REMARK  226  A    between atoms: _582  and  _583
REMARK  227  A    between atoms: _586  and  _588
REMARK  228  A    between atoms: _588  and  _589
REMARK  229  A    between atoms: _588  and  _591
REMARK  230  A    between atoms: _591  and  _592
REMARK  231  A    between atoms: _597  and  _598
REMARK  232  A    between atoms: _600  and  _602
REMARK  233  A    between atoms: _602  and  _603
REMARK  234  A    between atoms: _602  and  _605
REMARK  235  A    between atoms: _605  and  _606
REMARK  236  A    between atoms: _608  and  _610
REMARK  237  A    between atoms: _610  and  _611
REMARK  238  A    between atoms: _610  and  _613
REMARK  239  A    between atoms: _613  and  _614
REMARK  240  A    between atoms: _620  and  _622
REMARK  241  A    between atoms: _622  and  _623
REMARK  242  A    between atoms: _622  and  _625
REMARK  243  A    between atoms: _625  and  _626
REMARK                            x       y       z     vdW  Elec       q    Type
REMARK                         _______ _______ _______ _____ _____    ______ ____
ROOT
ATOM      1  O   HOH     1      14.391  -9.178  24.469  0.00  0.00    +0.000 OA
ENDROOT
TORSDOF 0
REMARK  Name = ../refined-set-2016/1m7y/1m7y_pocket.pdb
REMARK  243 active torsions:
REMARK  status: ('A' for Active; 'I' for Inactive)
REMARK    1  A    between atoms: _1  and  _3
REMARK    2  A    between atoms: _3  and  _4
REMARK    3  A    between atoms: _3  and  _6
REMARK    4  A    between atoms: _6  and  _7
REMARK    5  A    between atoms: _12  and  _13
REMARK    6  A    between atoms: _15  and  _17
REMARK    7  A    between atoms: _17  and  _18
REMARK    8  A    between atoms: _17  and  _20
REMARK    9  A    between atoms: _20  and  _21
REMARK   10  A    between atoms: _27  and  _29
REMARK   11  A    between atoms: _29  and  _30
REMARK   12  A    between atoms: _29  and  _32
REMARK   13  A    between atoms: _32  and  _33
REMARK   14  A    between atoms: _43  and  _45
REMARK   15  A    between atoms: _45  and  _46
REMARK   16  A    between atoms: _45  and  _48
REMARK   17  A    between atoms: _48  and  _49
REMARK   18  A    between atoms: _49  and  _50
REMARK   19  A    between atoms: _55  and  _57
REMARK   20  A    between atoms: _57  and  _58
REMARK   21  A    between atoms: _60  and  _62
REMARK   22  A    between atoms: _62  and  _63
REMARK   23  A    between atoms: _62  and  _65
REMARK   24  A    between atoms: _65  and  _66
REMARK   25  A    between atoms: _69  and  _71
REMARK   26  A    between atoms: _71  and  _72
REMARK   27  A    between atoms: _75  and  _77
REMARK   28  A    between atoms: _77  and  _78
REMARK   29  A    between atoms: _77  and  _80
REMARK   30  A    between atoms: _80  and  _81
REMARK   31  A    between atoms: _81  and  _82
REMARK   32  A    between atoms: _85  and  _87
REMARK   33  A    between atoms: _87  and  _88
REMARK   34  A    between atoms: _87  and  _90
REMARK   35  A    between atoms: _90  and  _91
REMARK   36  A    between atoms: _96  and  _98
REMARK   37  A    between atoms: _98  and  _99
REMARK   38  A    between atoms: _98  and  _101
REMARK   39  A    between atoms: _101  and  _102
REMARK   40  A    between atoms: _105  and  _107
REMARK   41  A    between atoms: _107  and  _108
REMARK   42  A    between atoms: _111  and  _113
REMARK   43  A    between atoms: _113  and  _114
REMARK   44  A    between atoms: _116  and  _118
REMARK   45  A    between atoms: _118  and  _119
REMARK   46  A    between atoms: _122  and  _124
REMARK   47  A    between atoms: _124  and  _125
REMARK   48  A    between atoms: _124  and  _127
REMARK   49  A    between atoms: _127  and  _128
REMARK   50  A    between atoms: _131  and  _133
REMARK   51  A    between atoms: _133  and  _134
REMARK   52  A    between atoms: _133  and  _136
REMARK   53  A    between atoms: _136  and  _137
REMARK   54  A    between atoms: _139  and  _141
REMARK   55  A    between atoms: _141  and  _142
REMARK   56  A    between atoms: _145  and  _147
REMARK   57  A    between atoms: _147  and  _148
REMARK   58  A    between atoms: _147  and  _150
REMARK   59  A    between atoms: _150  and  _151
REMARK   60  A    between atoms: _156  and  _158
REMARK   61  A    between atoms: _158  and  _159
REMARK   62  A    between atoms: _158  and  _161
REMARK   63  A    between atoms: _161  and  _162
REMARK   64  A    between atoms: _162  and  _163
REMARK   65  A    between atoms: _166  and  _168
REMARK   66  A    between atoms: _168  and  _169
REMARK   67  A    between atoms: _168  and  _171
REMARK   68  A    between atoms: _171  and  _172
REMARK   69  A    between atoms: _177  and  _178
REMARK   70  A    between atoms: _180  and  _182
REMARK   71  A    between atoms: _182  and  _183
REMARK   72  A    between atoms: _182  and  _185
REMARK   73  A    between atoms: _185  and  _186
REMARK   74  A    between atoms: _191  and  _192
REMARK   75  A    between atoms: _195  and  _196
REMARK   76  A    between atoms: _201  and  _203
REMARK   77  A    between atoms: _203  and  _204
REMARK   78  A    between atoms: _206  and  _208
REMARK   79  A    between atoms: _208  and  _209
REMARK   80  A    between atoms: _208  and  _211
REMARK   81  A    between atoms: _211  and  _212
REMARK   82  A    between atoms: _218  and  _220
REMARK   83  A    between atoms: _220  and  _221
REMARK   84  A    between atoms: _220  and  _223
REMARK   85  A    between atoms: _223  and  _224
REMARK   86  A    between atoms: _224  and  _225
REMARK   87  A    between atoms: _225  and  _226
REMARK   88  A    between atoms: _235  and  _237
REMARK   89  A    between atoms: _237  and  _238
REMARK   90  A    between atoms: _237  and  _240
REMARK   91  A    between atoms: _240  and  _241
REMARK   92  A    between atoms: _244  and  _246
REMARK   93  A    between atoms: _246  and  _247
REMARK   94  A    between atoms: _246  and  _249
REMARK   95  A    between atoms: _249  and  _250
REMARK   96  A    between atoms: _253  and  _255
REMARK   97  A    between atoms: _255  and  _256
REMARK   98  A    between atoms: _255  and  _258
REMARK   99  A    between atoms: _261  and  _263
REMARK  100  A    between atoms: _263  and  _264
REMARK  101  A    between atoms: _263  and  _266
REMARK  102  A    between atoms: _266  and  _267
REMARK  103  A    between atoms: _270  and  _272
REMARK  104  A    between atoms: _272  and  _273
REMARK  105  A    between atoms: _272  and  _275
REMARK  106  A    between atoms: _275  and  _276
REMARK  107  A    between atoms: _282  and  _283
REMARK  108  A    between atoms: _288  and  _290
REMARK  109  A    between atoms: _290  and  _291
REMARK  110  A    between atoms: _290  and  _293
REMARK  111  A    between atoms: _293  and  _294
REMARK  112  A    between atoms: _296  and  _298
REMARK  113  A    between atoms: _298  and  _299
REMARK  114  A    between atoms: _298  and  _301
REMARK  115  A    between atoms: _301  and  _302
REMARK  116  A    between atoms: _308  and  _309
REMARK  117  A    between atoms: _314  and  _316
REMARK  118  A    between atoms: _316  and  _317
REMARK  119  A    between atoms: _316  and  _319
REMARK  120  A    between atoms: _319  and  _320
REMARK  121  A    between atoms: _323  and  _325
REMARK  122  A    between atoms: _325  and  _326
REMARK  123  A    between atoms: _325  and  _328
REMARK  124  A    between atoms: _328  and  _329
REMARK  125  A    between atoms: _329  and  _330
REMARK  126  A    between atoms: _333  and  _335
REMARK  127  A    between atoms: _335  and  _336
REMARK  128  A    between atoms: _335  and  _338
REMARK  129  A    between atoms: _338  and  _339
REMARK  130  A    between atoms: _342  and  _344
REMARK  131  A    between atoms: _344  and  _345
REMARK  132  A    between atoms: _344  and  _347
REMARK  133  A    between atoms: _347  and  _348
REMARK  134  A    between atoms: _353  and  _354
REMARK  135  A    between atoms: _356  and  _358
REMARK  136  A    between atoms: _358  and  _359
REMARK  137  A    between atoms: _358  and  _361
REMARK  138  A    between atoms: _364  and  _366
REMARK  139  A    between atoms: _366  and  _367
REMARK  140  A    between atoms: _366  and  _369
REMARK  141  A    between atoms: _369  and  _370
REMARK  142  A    between atoms: _375  and  _376
REMARK  143  A    between atoms: _378  and  _380
REMARK  144  A    between atoms: _380  and  _381
REMARK  145  A    between atoms: _380  and  _383
REMARK  146  A    between atoms: _383  and  _384
REMARK  147  A    between atoms: _386  and  _388
REMARK  148  A    between atoms: _388  and  _389
REMARK  149  A    between atoms: _388  and  _391
REMARK  150  A    between atoms: _391  and  _392
REMARK  151  A    between atoms: _395  and  _397
REMARK  152  A    between atoms: _397  and  _398
REMARK  153  A    between atoms: _397  and  _400
REMARK  154  A    between atoms: _400  and  _401
REMARK  155  A    between atoms: _403  and  _405
REMARK  156  A    between atoms: _405  and  _406
REMARK  157  A    between atoms: _405  and  _408
REMARK  158  A    between atoms: _408  and  _409
REMARK  159  A    between atoms: _409  and  _410
REMARK  160  A    between atoms: _410  and  _411
REMARK  161  A    between atoms: _411  and  _412
REMARK  162  A    between atoms: _416  and  _418
REMARK  163  A    between atoms: _418  and  _419
REMARK  164  A    between atoms: _418  and  _421
REMARK  165  A    between atoms: _421  and  _422
REMARK  166  A    between atoms: _426  and  _427
REMARK  167  A    between atoms: _432  and  _434
REMARK  168  A    between atoms: _434  and  _435
REMARK  169  A    between atoms: _437  and  _439
REMARK  170  A    between atoms: _439  and  _440
REMARK  171  A    between atoms: _439  and  _442
REMARK  172  A    between atoms: _442  and  _443
REMARK  173  A    between atoms: _449  and  _451
REMARK  174  A    between atoms: _451  and  _452
REMARK  175  A    between atoms: _451  and  _454
REMARK  176  A    between atoms: _454  and  _455
REMARK  177  A    between atoms: _455  and  _456
REMARK  178  A    between atoms: _456  and  _457
REMARK  179  A    between atoms: _466  and  _468
REMARK  180  A    between atoms: _468  and  _469
REMARK  181  A    between atoms: _468  and  _471
REMARK  182  A    between atoms: _474  and  _476
REMARK  183  A    between atoms: _476  and  _477
REMARK  184  A    between atoms: _479  and  _481
REMARK  185  A    between atoms: _481  and  _482
REMARK  186  A    between atoms: _485  and  _487
REMARK  187  A    between atoms: _487  and  _488
REMARK  188  A    between atoms: _487  and  _490
REMARK  189  A    between atoms: _490  and  _491
REMARK  190  A    between atoms: _494  and  _496
REMARK  191  A    between atoms: _496  and  _497
REMARK  192  A    between atoms: _496  and  _499
REMARK  193  A    between atoms: _499  and  _500
REMARK  194  A    between atoms: _506  and  _508
REMARK  195  A    between atoms: _508  and  _509
REMARK  196  A    between atoms: _508  and  _511
REMARK  197  A    between atoms: _511  and  _512
REMARK  198  A    between atoms: _514  and  _516
REMARK  199  A    between atoms: _516  and  _517
REMARK  200  A    between atoms: _516  and  _519
REMARK  201  A    between atoms: _521  and  _523
REMARK  202  A    between atoms: _523  and  _524
REMARK  203  A    between atoms: _523  and  _526
REMARK  204  A    between atoms: _526  and  _527
REMARK  205  A    between atoms: _527  and  _528
REMARK  206  A    between atoms: _528  and  _529
REMARK  207  A    between atoms: _538  and  _540
REMARK  208  A    between atoms: _540  and  _541
REMARK  209  A    between atoms: _540  and  _543
REMARK  210  A    between atoms: _545  and  _547
REMARK  211  A    between atoms: _547  and  _548
REMARK  212  A    between atoms: _547  and  _550
REMARK  213  A    between atoms: _550  and  _551
REMARK  214  A    between atoms: _556  and  _558
REMARK  215  A    between atoms: _558  and  _559
REMARK  216  A    between atoms: _558  and  _561
REMARK  217  A    between atoms: _561  and  _562
REMARK  218  A    between atoms: _565  and  _567
REMARK  219  A    between atoms: _567  and  _568
REMARK  220  A    between atoms: _567  and  _570
REMARK  221  A    between atoms: _570  and  _571
REMARK  222  A    between atoms: _571  and  _572
REMARK  223  A    between atoms: _577  and  _579
REMARK  224  A    between atoms: _579  and  _580
REMARK  225  A    between atoms: _579  and  _582
REMARK  226  A    between atoms: _582  and  _583
REMARK  227  A    between atoms: _586  and  _588
REMARK  228  A    between atoms: _588  and  _589
REMARK  229  A    between atoms: _588  and  _591
REMARK  230  A    between atoms: _591  and  _592
REMARK  231  A    between atoms: _597  and  _598
REMARK  232  A    between atoms: _600  and  _602
REMARK  233  A    between atoms: _602  and  _603
REMARK  234  A    between atoms: _602  and  _605
REMARK  235  A    between atoms: _605  and  _606
REMARK  236  A    between atoms: _608  and  _610
REMARK  237  A    between atoms: _610  and  _611
REMARK  238  A    between atoms: _610  and  _613
REMARK  239  A    between atoms: _613  and  _614
REMARK  240  A    between atoms: _620  and  _622
REMARK  241  A    between atoms: _622  and  _623
REMARK  242  A    between atoms: _622  and  _625
REMARK  243  A    between atoms: _625  and  _626
REMARK                            x       y       z     vdW  Elec       q    Type
REMARK                         _______ _______ _______ _____ _____    ______ ____
ROOT
ATOM      1  O   HOH     1       9.769  -6.155  26.330  0.00  0.00    +0.000 OA
ENDROOT
TORSDOF 0
REMARK  Name = ../refined-set-2016/1m7y/1m7y_pocket.pdb
REMARK  243 active torsions:
REMARK  status: ('A' for Active; 'I' for Inactive)
REMARK    1  A    between atoms: _1  and  _3
REMARK    2  A    between atoms: _3  and  _4
REMARK    3  A    between atoms: _3  and  _6
REMARK    4  A    between atoms: _6  and  _7
REMARK    5  A    between atoms: _12  and  _13
REMARK    6  A    between atoms: _15  and  _17
REMARK    7  A    between atoms: _17  and  _18
REMARK    8  A    between atoms: _17  and  _20
REMARK    9  A    between atoms: _20  and  _21
REMARK   10  A    between atoms: _27  and  _29
REMARK   11  A    between atoms: _29  and  _30
REMARK   12  A    between atoms: _29  and  _32
REMARK   13  A    between atoms: _32  and  _33
REMARK   14  A    between atoms: _43  and  _45
REMARK   15  A    between atoms: _45  and  _46
REMARK   16  A    between atoms: _45  and  _48
REMARK   17  A    between atoms: _48  and  _49
REMARK   18  A    between atoms: _49  and  _50
REMARK   19  A    between atoms: _55  and  _57
REMARK   20  A    between atoms: _57  and  _58
REMARK   21  A    between atoms: _60  and  _62
REMARK   22  A    between atoms: _62  and  _63
REMARK   23  A    between atoms: _62  and  _65
REMARK   24  A    between atoms: _65  and  _66
REMARK   25  A    between atoms: _69  and  _71
REMARK   26  A    between atoms: _71  and  _72
REMARK   27  A    between atoms: _75  and  _77
REMARK   28  A    between atoms: _77  and  _78
REMARK   29  A    between atoms: _77  and  _80
REMARK   30  A    between atoms: _80  and  _81
REMARK   31  A    between atoms: _81  and  _82
REMARK   32  A    between atoms: _85  and  _87
REMARK   33  A    between atoms: _87  and  _88
REMARK   34  A    between atoms: _87  and  _90
REMARK   35  A    between atoms: _90  and  _91
REMARK   36  A    between atoms: _96  and  _98
REMARK   37  A    between atoms: _98  and  _99
REMARK   38  A    between atoms: _98  and  _101
REMARK   39  A    between atoms: _101  and  _102
REMARK   40  A    between atoms: _105  and  _107
REMARK   41  A    between atoms: _107  and  _108
REMARK   42  A    between atoms: _111  and  _113
REMARK   43  A    between atoms: _113  and  _114
REMARK   44  A    between atoms: _116  and  _118
REMARK   45  A    between atoms: _118  and  _119
REMARK   46  A    between atoms: _122  and  _124
REMARK   47  A    between atoms: _124  and  _125
REMARK   48  A    between atoms: _124  and  _127
REMARK   49  A    between atoms: _127  and  _128
REMARK   50  A    between atoms: _131  and  _133
REMARK   51  A    between atoms: _133  and  _134
REMARK   52  A    between atoms: _133  and  _136
REMARK   53  A    between atoms: _136  and  _137
REMARK   54  A    between atoms: _139  and  _141
REMARK   55  A    between atoms: _141  and  _142
REMARK   56  A    between atoms: _145  and  _147
REMARK   57  A    between atoms: _147  and  _148
REMARK   58  A    between atoms: _147  and  _150
REMARK   59  A    between atoms: _150  and  _151
REMARK   60  A    between atoms: _156  and  _158
REMARK   61  A    between atoms: _158  and  _159
REMARK   62  A    between atoms: _158  and  _161
REMARK   63  A    between atoms: _161  and  _162
REMARK   64  A    between atoms: _162  and  _163
REMARK   65  A    between atoms: _166  and  _168
REMARK   66  A    between atoms: _168  and  _169
REMARK   67  A    between atoms: _168  and  _171
REMARK   68  A    between atoms: _171  and  _172
REMARK   69  A    between atoms: _177  and  _178
REMARK   70  A    between atoms: _180  and  _182
REMARK   71  A    between atoms: _182  and  _183
REMARK   72  A    between atoms: _182  and  _185
REMARK   73  A    between atoms: _185  and  _186
REMARK   74  A    between atoms: _191  and  _192
REMARK   75  A    between atoms: _195  and  _196
REMARK   76  A    between atoms: _201  and  _203
REMARK   77  A    between atoms: _203  and  _204
REMARK   78  A    between atoms: _206  and  _208
REMARK   79  A    between atoms: _208  and  _209
REMARK   80  A    between atoms: _208  and  _211
REMARK   81  A    between atoms: _211  and  _212
REMARK   82  A    between atoms: _218  and  _220
REMARK   83  A    between atoms: _220  and  _221
REMARK   84  A    between atoms: _220  and  _223
REMARK   85  A    between atoms: _223  and  _224
REMARK   86  A    between atoms: _224  and  _225
REMARK   87  A    between atoms: _225  and  _226
REMARK   88  A    between atoms: _235  and  _237
REMARK   89  A    between atoms: _237  and  _238
REMARK   90  A    between atoms: _237  and  _240
REMARK   91  A    between atoms: _240  and  _241
REMARK   92  A    between atoms: _244  and  _246
REMARK   93  A    between atoms: _246  and  _247
REMARK   94  A    between atoms: _246  and  _249
REMARK   95  A    between atoms: _249  and  _250
REMARK   96  A    between atoms: _253  and  _255
REMARK   97  A    between atoms: _255  and  _256
REMARK   98  A    between atoms: _255  and  _258
REMARK   99  A    between atoms: _261  and  _263
REMARK  100  A    between atoms: _263  and  _264
REMARK  101  A    between atoms: _263  and  _266
REMARK  102  A    between atoms: _266  and  _267
REMARK  103  A    between atoms: _270  and  _272
REMARK  104  A    between atoms: _272  and  _273
REMARK  105  A    between atoms: _272  and  _275
REMARK  106  A    between atoms: _275  and  _276
REMARK  107  A    between atoms: _282  and  _283
REMARK  108  A    between atoms: _288  and  _290
REMARK  109  A    between atoms: _290  and  _291
REMARK  110  A    between atoms: _290  and  _293
REMARK  111  A    between atoms: _293  and  _294
REMARK  112  A    between atoms: _296  and  _298
REMARK  113  A    between atoms: _298  and  _299
REMARK  114  A    between atoms: _298  and  _301
REMARK  115  A    between atoms: _301  and  _302
REMARK  116  A    between atoms: _308  and  _309
REMARK  117  A    between atoms: _314  and  _316
REMARK  118  A    between atoms: _316  and  _317
REMARK  119  A    between atoms: _316  and  _319
REMARK  120  A    between atoms: _319  and  _320
REMARK  121  A    between atoms: _323  and  _325
REMARK  122  A    between atoms: _325  and  _326
REMARK  123  A    between atoms: _325  and  _328
REMARK  124  A    between atoms: _328  and  _329
REMARK  125  A    between atoms: _329  and  _330
REMARK  126  A    between atoms: _333  and  _335
REMARK  127  A    between atoms: _335  and  _336
REMARK  128  A    between atoms: _335  and  _338
REMARK  129  A    between atoms: _338  and  _339
REMARK  130  A    between atoms: _342  and  _344
REMARK  131  A    between atoms: _344  and  _345
REMARK  132  A    between atoms: _344  and  _347
REMARK  133  A    between atoms: _347  and  _348
REMARK  134  A    between atoms: _353  and  _354
REMARK  135  A    between atoms: _356  and  _358
REMARK  136  A    between atoms: _358  and  _359
REMARK  137  A    between atoms: _358  and  _361
REMARK  138  A    between atoms: _364  and  _366
REMARK  139  A    between atoms: _366  and  _367
REMARK  140  A    between atoms: _366  and  _369
REMARK  141  A    between atoms: _369  and  _370
REMARK  142  A    between atoms: _375  and  _376
REMARK  143  A    between atoms: _378  and  _380
REMARK  144  A    between atoms: _380  and  _381
REMARK  145  A    between atoms: _380  and  _383
REMARK  146  A    between atoms: _383  and  _384
REMARK  147  A    between atoms: _386  and  _388
REMARK  148  A    between atoms: _388  and  _389
REMARK  149  A    between atoms: _388  and  _391
REMARK  150  A    between atoms: _391  and  _392
REMARK  151  A    between atoms: _395  and  _397
REMARK  152  A    between atoms: _397  and  _398
REMARK  153  A    between atoms: _397  and  _400
REMARK  154  A    between atoms: _400  and  _401
REMARK  155  A    between atoms: _403  and  _405
REMARK  156  A    between atoms: _405  and  _406
REMARK  157  A    between atoms: _405  and  _408
REMARK  158  A    between atoms: _408  and  _409
REMARK  159  A    between atoms: _409  and  _410
REMARK  160  A    between atoms: _410  and  _411
REMARK  161  A    between atoms: _411  and  _412
REMARK  162  A    between atoms: _416  and  _418
REMARK  163  A    between atoms: _418  and  _419
REMARK  164  A    between atoms: _418  and  _421
REMARK  165  A    between atoms: _421  and  _422
REMARK  166  A    between atoms: _426  and  _427
REMARK  167  A    between atoms: _432  and  _434
REMARK  168  A    between atoms: _434  and  _435
REMARK  169  A    between atoms: _437  and  _439
REMARK  170  A    between atoms: _439  and  _440
REMARK  171  A    between atoms: _439  and  _442
REMARK  172  A    between atoms: _442  and  _443
REMARK  173  A    between atoms: _449  and  _451
REMARK  174  A    between atoms: _451  and  _452
REMARK  175  A    between atoms: _451  and  _454
REMARK  176  A    between atoms: _454  and  _455
REMARK  177  A    between atoms: _455  and  _456
REMARK  178  A    between atoms: _456  and  _457
REMARK  179  A    between atoms: _466  and  _468
REMARK  180  A    between atoms: _468  and  _469
REMARK  181  A    between atoms: _468  and  _471
REMARK  182  A    between atoms: _474  and  _476
REMARK  183  A    between atoms: _476  and  _477
REMARK  184  A    between atoms: _479  and  _481
REMARK  185  A    between atoms: _481  and  _482
REMARK  186  A    between atoms: _485  and  _487
REMARK  187  A    between atoms: _487  and  _488
REMARK  188  A    between atoms: _487  and  _490
REMARK  189  A    between atoms: _490  and  _491
REMARK  190  A    between atoms: _494  and  _496
REMARK  191  A    between atoms: _496  and  _497
REMARK  192  A    between atoms: _496  and  _499
REMARK  193  A    between atoms: _499  and  _500
REMARK  194  A    between atoms: _506  and  _508
REMARK  195  A    between atoms: _508  and  _509
REMARK  196  A    between atoms: _508  and  _511
REMARK  197  A    between atoms: _511  and  _512
REMARK  198  A    between atoms: _514  and  _516
REMARK  199  A    between atoms: _516  and  _517
REMARK  200  A    between atoms: _516  and  _519
REMARK  201  A    between atoms: _521  and  _523
REMARK  202  A    between atoms: _523  and  _524
REMARK  203  A    between atoms: _523  and  _526
REMARK  204  A    between atoms: _526  and  _527
REMARK  205  A    between atoms: _527  and  _528
REMARK  206  A    between atoms: _528  and  _529
REMARK  207  A    between atoms: _538  and  _540
REMARK  208  A    between atoms: _540  and  _541
REMARK  209  A    between atoms: _540  and  _543
REMARK  210  A    between atoms: _545  and  _547
REMARK  211  A    between atoms: _547  and  _548
REMARK  212  A    between atoms: _547  and  _550
REMARK  213  A    between atoms: _550  and  _551
REMARK  214  A    between atoms: _556  and  _558
REMARK  215  A    between atoms: _558  and  _559
REMARK  216  A    between atoms: _558  and  _561
REMARK  217  A    between atoms: _561  and  _562
REMARK  218  A    between atoms: _565  and  _567
REMARK  219  A    between atoms: _567  and  _568
REMARK  220  A    between atoms: _567  and  _570
REMARK  221  A    between atoms: _570  and  _571
REMARK  222  A    between atoms: _571  and  _572
REMARK  223  A    between atoms: _577  and  _579
REMARK  224  A    between atoms: _579  and  _580
REMARK  225  A    between atoms: _579  and  _582
REMARK  226  A    between atoms: _582  and  _583
REMARK  227  A    between atoms: _586  and  _588
REMARK  228  A    between atoms: _588  and  _589
REMARK  229  A    between atoms: _588  and  _591
REMARK  230  A    between atoms: _591  and  _592
REMARK  231  A    between atoms: _597  and  _598
REMARK  232  A    between atoms: _600  and  _602
REMARK  233  A    between atoms: _602  and  _603
REMARK  234  A    between atoms: _602  and  _605
REMARK  235  A    between atoms: _605  and  _606
REMARK  236  A    between atoms: _608  and  _610
REMARK  237  A    between atoms: _610  and  _611
REMARK  238  A    between atoms: _610  and  _613
REMARK  239  A    between atoms: _613  and  _614
REMARK  240  A    between atoms: _620  and  _622
REMARK  241  A    between atoms: _622  and  _623
REMARK  242  A    between atoms: _622  and  _625
REMARK  243  A    between atoms: _625  and  _626
REMARK                            x       y       z     vdW  Elec       q    Type
REMARK                         _______ _______ _______ _____ _____    ______ ____
ROOT
ATOM      1  O   HOH     1      20.587  -2.846  23.485  0.00  0.00    +0.000 OA
ENDROOT
TORSDOF 0
REMARK  Name = ../refined-set-2016/1m7y/1m7y_pocket.pdb
REMARK  243 active torsions:
REMARK  status: ('A' for Active; 'I' for Inactive)
REMARK    1  A    between atoms: _1  and  _3
REMARK    2  A    between atoms: _3  and  _4
REMARK    3  A    between atoms: _3  and  _6
REMARK    4  A    between atoms: _6  and  _7
REMARK    5  A    between atoms: _12  and  _13
REMARK    6  A    between atoms: _15  and  _17
REMARK    7  A    between atoms: _17  and  _18
REMARK    8  A    between atoms: _17  and  _20
REMARK    9  A    between atoms: _20  and  _21
REMARK   10  A    between atoms: _27  and  _29
REMARK   11  A    between atoms: _29  and  _30
REMARK   12  A    between atoms: _29  and  _32
REMARK   13  A    between atoms: _32  and  _33
REMARK   14  A    between atoms: _43  and  _45
REMARK   15  A    between atoms: _45  and  _46
REMARK   16  A    between atoms: _45  and  _48
REMARK   17  A    between atoms: _48  and  _49
REMARK   18  A    between atoms: _49  and  _50
REMARK   19  A    between atoms: _55  and  _57
REMARK   20  A    between atoms: _57  and  _58
REMARK   21  A    between atoms: _60  and  _62
REMARK   22  A    between atoms: _62  and  _63
REMARK   23  A    between atoms: _62  and  _65
REMARK   24  A    between atoms: _65  and  _66
REMARK   25  A    between atoms: _69  and  _71
REMARK   26  A    between atoms: _71  and  _72
REMARK   27  A    between atoms: _75  and  _77
REMARK   28  A    between atoms: _77  and  _78
REMARK   29  A    between atoms: _77  and  _80
REMARK   30  A    between atoms: _80  and  _81
REMARK   31  A    between atoms: _81  and  _82
REMARK   32  A    between atoms: _85  and  _87
REMARK   33  A    between atoms: _87  and  _88
REMARK   34  A    between atoms: _87  and  _90
REMARK   35  A    between atoms: _90  and  _91
REMARK   36  A    between atoms: _96  and  _98
REMARK   37  A    between atoms: _98  and  _99
REMARK   38  A    between atoms: _98  and  _101
REMARK   39  A    between atoms: _101  and  _102
REMARK   40  A    between atoms: _105  and  _107
REMARK   41  A    between atoms: _107  and  _108
REMARK   42  A    between atoms: _111  and  _113
REMARK   43  A    between atoms: _113  and  _114
REMARK   44  A    between atoms: _116  and  _118
REMARK   45  A    between atoms: _118  and  _119
REMARK   46  A    between atoms: _122  and  _124
REMARK   47  A    between atoms: _124  and  _125
REMARK   48  A    between atoms: _124  and  _127
REMARK   49  A    between atoms: _127  and  _128
REMARK   50  A    between atoms: _131  and  _133
REMARK   51  A    between atoms: _133  and  _134
REMARK   52  A    between atoms: _133  and  _136
REMARK   53  A    between atoms: _136  and  _137
REMARK   54  A    between atoms: _139  and  _141
REMARK   55  A    between atoms: _141  and  _142
REMARK   56  A    between atoms: _145  and  _147
REMARK   57  A    between atoms: _147  and  _148
REMARK   58  A    between atoms: _147  and  _150
REMARK   59  A    between atoms: _150  and  _151
REMARK   60  A    between atoms: _156  and  _158
REMARK   61  A    between atoms: _158  and  _159
REMARK   62  A    between atoms: _158  and  _161
REMARK   63  A    between atoms: _161  and  _162
REMARK   64  A    between atoms: _162  and  _163
REMARK   65  A    between atoms: _166  and  _168
REMARK   66  A    between atoms: _168  and  _169
REMARK   67  A    between atoms: _168  and  _171
REMARK   68  A    between atoms: _171  and  _172
REMARK   69  A    between atoms: _177  and  _178
REMARK   70  A    between atoms: _180  and  _182
REMARK   71  A    between atoms: _182  and  _183
REMARK   72  A    between atoms: _182  and  _185
REMARK   73  A    between atoms: _185  and  _186
REMARK   74  A    between atoms: _191  and  _192
REMARK   75  A    between atoms: _195  and  _196
REMARK   76  A    between atoms: _201  and  _203
REMARK   77  A    between atoms: _203  and  _204
REMARK   78  A    between atoms: _206  and  _208
REMARK   79  A    between atoms: _208  and  _209
REMARK   80  A    between atoms: _208  and  _211
REMARK   81  A    between atoms: _211  and  _212
REMARK   82  A    between atoms: _218  and  _220
REMARK   83  A    between atoms: _220  and  _221
REMARK   84  A    between atoms: _220  and  _223
REMARK   85  A    between atoms: _223  and  _224
REMARK   86  A    between atoms: _224  and  _225
REMARK   87  A    between atoms: _225  and  _226
REMARK   88  A    between atoms: _235  and  _237
REMARK   89  A    between atoms: _237  and  _238
REMARK   90  A    between atoms: _237  and  _240
REMARK   91  A    between atoms: _240  and  _241
REMARK   92  A    between atoms: _244  and  _246
REMARK   93  A    between atoms: _246  and  _247
REMARK   94  A    between atoms: _246  and  _249
REMARK   95  A    between atoms: _249  and  _250
REMARK   96  A    between atoms: _253  and  _255
REMARK   97  A    between atoms: _255  and  _256
REMARK   98  A    between atoms: _255  and  _258
REMARK   99  A    between atoms: _261  and  _263
REMARK  100  A    between atoms: _263  and  _264
REMARK  101  A    between atoms: _263  and  _266
REMARK  102  A    between atoms: _266  and  _267
REMARK  103  A    between atoms: _270  and  _272
REMARK  104  A    between atoms: _272  and  _273
REMARK  105  A    between atoms: _272  and  _275
REMARK  106  A    between atoms: _275  and  _276
REMARK  107  A    between atoms: _282  and  _283
REMARK  108  A    between atoms: _288  and  _290
REMARK  109  A    between atoms: _290  and  _291
REMARK  110  A    between atoms: _290  and  _293
REMARK  111  A    between atoms: _293  and  _294
REMARK  112  A    between atoms: _296  and  _298
REMARK  113  A    between atoms: _298  and  _299
REMARK  114  A    between atoms: _298  and  _301
REMARK  115  A    between atoms: _301  and  _302
REMARK  116  A    between atoms: _308  and  _309
REMARK  117  A    between atoms: _314  and  _316
REMARK  118  A    between atoms: _316  and  _317
REMARK  119  A    between atoms: _316  and  _319
REMARK  120  A    between atoms: _319  and  _320
REMARK  121  A    between atoms: _323  and  _325
REMARK  122  A    between atoms: _325  and  _326
REMARK  123  A    between atoms: _325  and  _328
REMARK  124  A    between atoms: _328  and  _329
REMARK  125  A    between atoms: _329  and  _330
REMARK  126  A    between atoms: _333  and  _335
REMARK  127  A    between atoms: _335  and  _336
REMARK  128  A    between atoms: _335  and  _338
REMARK  129  A    between atoms: _338  and  _339
REMARK  130  A    between atoms: _342  and  _344
REMARK  131  A    between atoms: _344  and  _345
REMARK  132  A    between atoms: _344  and  _347
REMARK  133  A    between atoms: _347  and  _348
REMARK  134  A    between atoms: _353  and  _354
REMARK  135  A    between atoms: _356  and  _358
REMARK  136  A    between atoms: _358  and  _359
REMARK  137  A    between atoms: _358  and  _361
REMARK  138  A    between atoms: _364  and  _366
REMARK  139  A    between atoms: _366  and  _367
REMARK  140  A    between atoms: _366  and  _369
REMARK  141  A    between atoms: _369  and  _370
REMARK  142  A    between atoms: _375  and  _376
REMARK  143  A    between atoms: _378  and  _380
REMARK  144  A    between atoms: _380  and  _381
REMARK  145  A    between atoms: _380  and  _383
REMARK  146  A    between atoms: _383  and  _384
REMARK  147  A    between atoms: _386  and  _388
REMARK  148  A    between atoms: _388  and  _389
REMARK  149  A    between atoms: _388  and  _391
REMARK  150  A    between atoms: _391  and  _392
REMARK  151  A    between atoms: _395  and  _397
REMARK  152  A    between atoms: _397  and  _398
REMARK  153  A    between atoms: _397  and  _400
REMARK  154  A    between atoms: _400  and  _401
REMARK  155  A    between atoms: _403  and  _405
REMARK  156  A    between atoms: _405  and  _406
REMARK  157  A    between atoms: _405  and  _408
REMARK  158  A    between atoms: _408  and  _409
REMARK  159  A    between atoms: _409  and  _410
REMARK  160  A    between atoms: _410  and  _411
REMARK  161  A    between atoms: _411  and  _412
REMARK  162  A    between atoms: _416  and  _418
REMARK  163  A    between atoms: _418  and  _419
REMARK  164  A    between atoms: _418  and  _421
REMARK  165  A    between atoms: _421  and  _422
REMARK  166  A    between atoms: _426  and  _427
REMARK  167  A    between atoms: _432  and  _434
REMARK  168  A    between atoms: _434  and  _435
REMARK  169  A    between atoms: _437  and  _439
REMARK  170  A    between atoms: _439  and  _440
REMARK  171  A    between atoms: _439  and  _442
REMARK  172  A    between atoms: _442  and  _443
REMARK  173  A    between atoms: _449  and  _451
REMARK  174  A    between atoms: _451  and  _452
REMARK  175  A    between atoms: _451  and  _454
REMARK  176  A    between atoms: _454  and  _455
REMARK  177  A    between atoms: _455  and  _456
REMARK  178  A    between atoms: _456  and  _457
REMARK  179  A    between atoms: _466  and  _468
REMARK  180  A    between atoms: _468  and  _469
REMARK  181  A    between atoms: _468  and  _471
REMARK  182  A    between atoms: _474  and  _476
REMARK  183  A    between atoms: _476  and  _477
REMARK  184  A    between atoms: _479  and  _481
REMARK  185  A    between atoms: _481  and  _482
REMARK  186  A    between atoms: _485  and  _487
REMARK  187  A    between atoms: _487  and  _488
REMARK  188  A    between atoms: _487  and  _490
REMARK  189  A    between atoms: _490  and  _491
REMARK  190  A    between atoms: _494  and  _496
REMARK  191  A    between atoms: _496  and  _497
REMARK  192  A    between atoms: _496  and  _499
REMARK  193  A    between atoms: _499  and  _500
REMARK  194  A    between atoms: _506  and  _508
REMARK  195  A    between atoms: _508  and  _509
REMARK  196  A    between atoms: _508  and  _511
REMARK  197  A    between atoms: _511  and  _512
REMARK  198  A    between atoms: _514  and  _516
REMARK  199  A    between atoms: _516  and  _517
REMARK  200  A    between atoms: _516  and  _519
REMARK  201  A    between atoms: _521  and  _523
REMARK  202  A    between atoms: _523  and  _524
REMARK  203  A    between atoms: _523  and  _526
REMARK  204  A    between atoms: _526  and  _527
REMARK  205  A    between atoms: _527  and  _528
REMARK  206  A    between atoms: _528  and  _529
REMARK  207  A    between atoms: _538  and  _540
REMARK  208  A    between atoms: _540  and  _541
REMARK  209  A    between atoms: _540  and  _543
REMARK  210  A    between atoms: _545  and  _547
REMARK  211  A    between atoms: _547  and  _548
REMARK  212  A    between atoms: _547  and  _550
REMARK  213  A    between atoms: _550  and  _551
REMARK  214  A    between atoms: _556  and  _558
REMARK  215  A    between atoms: _558  and  _559
REMARK  216  A    between atoms: _558  and  _561
REMARK  217  A    between atoms: _561  and  _562
REMARK  218  A    between atoms: _565  and  _567
REMARK  219  A    between atoms: _567  and  _568
REMARK  220  A    between atoms: _567  and  _570
REMARK  221  A    between atoms: _570  and  _571
REMARK  222  A    between atoms: _571  and  _572
REMARK  223  A    between atoms: _577  and  _579
REMARK  224  A    between atoms: _579  and  _580
REMARK  225  A    between atoms: _579  and  _582
REMARK  226  A    between atoms: _582  and  _583
REMARK  227  A    between atoms: _586  and  _588
REMARK  228  A    between atoms: _588  and  _589
REMARK  229  A    between atoms: _588  and  _591
REMARK  230  A    between atoms: _591  and  _592
REMARK  231  A    between atoms: _597  and  _598
REMARK  232  A    between atoms: _600  and  _602
REMARK  233  A    between atoms: _602  and  _603
REMARK  234  A    between atoms: _602  and  _605
REMARK  235  A    between atoms: _605  and  _606
REMARK  236  A    between atoms: _608  and  _610
REMARK  237  A    between atoms: _610  and  _611
REMARK  238  A    between atoms: _610  and  _613
REMARK  239  A    between atoms: _613  and  _614
REMARK  240  A    between atoms: _620  and  _622
REMARK  241  A    between atoms: _622  and  _623
REMARK  242  A    between atoms: _622  and  _625
REMARK  243  A    between atoms: _625  and  _626
REMARK                            x       y       z     vdW  Elec       q    Type
REMARK                         _______ _______ _______ _____ _____    ______ ____
ROOT
ATOM      1  O   HOH     1      10.411  -5.546  20.116  0.00  0.00    +0.000 OA
ENDROOT
TORSDOF 0
REMARK  Name = ../refined-set-2016/1m7y/1m7y_pocket.pdb
REMARK  243 active torsions:
REMARK  status: ('A' for Active; 'I' for Inactive)
REMARK    1  A    between atoms: _1  and  _3
REMARK    2  A    between atoms: _3  and  _4
REMARK    3  A    between atoms: _3  and  _6
REMARK    4  A    between atoms: _6  and  _7
REMARK    5  A    between atoms: _12  and  _13
REMARK    6  A    between atoms: _15  and  _17
REMARK    7  A    between atoms: _17  and  _18
REMARK    8  A    between atoms: _17  and  _20
REMARK    9  A    between atoms: _20  and  _21
REMARK   10  A    between atoms: _27  and  _29
REMARK   11  A    between atoms: _29  and  _30
REMARK   12  A    between atoms: _29  and  _32
REMARK   13  A    between atoms: _32  and  _33
REMARK   14  A    between atoms: _43  and  _45
REMARK   15  A    between atoms: _45  and  _46
REMARK   16  A    between atoms: _45  and  _48
REMARK   17  A    between atoms: _48  and  _49
REMARK   18  A    between atoms: _49  and  _50
REMARK   19  A    between atoms: _55  and  _57
REMARK   20  A    between atoms: _57  and  _58
REMARK   21  A    between atoms: _60  and  _62
REMARK   22  A    between atoms: _62  and  _63
REMARK   23  A    between atoms: _62  and  _65
REMARK   24  A    between atoms: _65  and  _66
REMARK   25  A    between atoms: _69  and  _71
REMARK   26  A    between atoms: _71  and  _72
REMARK   27  A    between atoms: _75  and  _77
REMARK   28  A    between atoms: _77  and  _78
REMARK   29  A    between atoms: _77  and  _80
REMARK   30  A    between atoms: _80  and  _81
REMARK   31  A    between atoms: _81  and  _82
REMARK   32  A    between atoms: _85  and  _87
REMARK   33  A    between atoms: _87  and  _88
REMARK   34  A    between atoms: _87  and  _90
REMARK   35  A    between atoms: _90  and  _91
REMARK   36  A    between atoms: _96  and  _98
REMARK   37  A    between atoms: _98  and  _99
REMARK   38  A    between atoms: _98  and  _101
REMARK   39  A    between atoms: _101  and  _102
REMARK   40  A    between atoms: _105  and  _107
REMARK   41  A    between atoms: _107  and  _108
REMARK   42  A    between atoms: _111  and  _113
REMARK   43  A    between atoms: _113  and  _114
REMARK   44  A    between atoms: _116  and  _118
REMARK   45  A    between atoms: _118  and  _119
REMARK   46  A    between atoms: _122  and  _124
REMARK   47  A    between atoms: _124  and  _125
REMARK   48  A    between atoms: _124  and  _127
REMARK   49  A    between atoms: _127  and  _128
REMARK   50  A    between atoms: _131  and  _133
REMARK   51  A    between atoms: _133  and  _134
REMARK   52  A    between atoms: _133  and  _136
REMARK   53  A    between atoms: _136  and  _137
REMARK   54  A    between atoms: _139  and  _141
REMARK   55  A    between atoms: _141  and  _142
REMARK   56  A    between atoms: _145  and  _147
REMARK   57  A    between atoms: _147  and  _148
REMARK   58  A    between atoms: _147  and  _150
REMARK   59  A    between atoms: _150  and  _151
REMARK   60  A    between atoms: _156  and  _158
REMARK   61  A    between atoms: _158  and  _159
REMARK   62  A    between atoms: _158  and  _161
REMARK   63  A    between atoms: _161  and  _162
REMARK   64  A    between atoms: _162  and  _163
REMARK   65  A    between atoms: _166  and  _168
REMARK   66  A    between atoms: _168  and  _169
REMARK   67  A    between atoms: _168  and  _171
REMARK   68  A    between atoms: _171  and  _172
REMARK   69  A    between atoms: _177  and  _178
REMARK   70  A    between atoms: _180  and  _182
REMARK   71  A    between atoms: _182  and  _183
REMARK   72  A    between atoms: _182  and  _185
REMARK   73  A    between atoms: _185  and  _186
REMARK   74  A    between atoms: _191  and  _192
REMARK   75  A    between atoms: _195  and  _196
REMARK   76  A    between atoms: _201  and  _203
REMARK   77  A    between atoms: _203  and  _204
REMARK   78  A    between atoms: _206  and  _208
REMARK   79  A    between atoms: _208  and  _209
REMARK   80  A    between atoms: _208  and  _211
REMARK   81  A    between atoms: _211  and  _212
REMARK   82  A    between atoms: _218  and  _220
REMARK   83  A    between atoms: _220  and  _221
REMARK   84  A    between atoms: _220  and  _223
REMARK   85  A    between atoms: _223  and  _224
REMARK   86  A    between atoms: _224  and  _225
REMARK   87  A    between atoms: _225  and  _226
REMARK   88  A    between atoms: _235  and  _237
REMARK   89  A    between atoms: _237  and  _238
REMARK   90  A    between atoms: _237  and  _240
REMARK   91  A    between atoms: _240  and  _241
REMARK   92  A    between atoms: _244  and  _246
REMARK   93  A    between atoms: _246  and  _247
REMARK   94  A    between atoms: _246  and  _249
REMARK   95  A    between atoms: _249  and  _250
REMARK   96  A    between atoms: _253  and  _255
REMARK   97  A    between atoms: _255  and  _256
REMARK   98  A    between atoms: _255  and  _258
REMARK   99  A    between atoms: _261  and  _263
REMARK  100  A    between atoms: _263  and  _264
REMARK  101  A    between atoms: _263  and  _266
REMARK  102  A    between atoms: _266  and  _267
REMARK  103  A    between atoms: _270  and  _272
REMARK  104  A    between atoms: _272  and  _273
REMARK  105  A    between atoms: _272  and  _275
REMARK  106  A    between atoms: _275  and  _276
REMARK  107  A    between atoms: _282  and  _283
REMARK  108  A    between atoms: _288  and  _290
REMARK  109  A    between atoms: _290  and  _291
REMARK  110  A    between atoms: _290  and  _293
REMARK  111  A    between atoms: _293  and  _294
REMARK  112  A    between atoms: _296  and  _298
REMARK  113  A    between atoms: _298  and  _299
REMARK  114  A    between atoms: _298  and  _301
REMARK  115  A    between atoms: _301  and  _302
REMARK  116  A    between atoms: _308  and  _309
REMARK  117  A    between atoms: _314  and  _316
REMARK  118  A    between atoms: _316  and  _317
REMARK  119  A    between atoms: _316  and  _319
REMARK  120  A    between atoms: _319  and  _320
REMARK  121  A    between atoms: _323  and  _325
REMARK  122  A    between atoms: _325  and  _326
REMARK  123  A    between atoms: _325  and  _328
REMARK  124  A    between atoms: _328  and  _329
REMARK  125  A    between atoms: _329  and  _330
REMARK  126  A    between atoms: _333  and  _335
REMARK  127  A    between atoms: _335  and  _336
REMARK  128  A    between atoms: _335  and  _338
REMARK  129  A    between atoms: _338  and  _339
REMARK  130  A    between atoms: _342  and  _344
REMARK  131  A    between atoms: _344  and  _345
REMARK  132  A    between atoms: _344  and  _347
REMARK  133  A    between atoms: _347  and  _348
REMARK  134  A    between atoms: _353  and  _354
REMARK  135  A    between atoms: _356  and  _358
REMARK  136  A    between atoms: _358  and  _359
REMARK  137  A    between atoms: _358  and  _361
REMARK  138  A    between atoms: _364  and  _366
REMARK  139  A    between atoms: _366  and  _367
REMARK  140  A    between atoms: _366  and  _369
REMARK  141  A    between atoms: _369  and  _370
REMARK  142  A    between atoms: _375  and  _376
REMARK  143  A    between atoms: _378  and  _380
REMARK  144  A    between atoms: _380  and  _381
REMARK  145  A    between atoms: _380  and  _383
REMARK  146  A    between atoms: _383  and  _384
REMARK  147  A    between atoms: _386  and  _388
REMARK  148  A    between atoms: _388  and  _389
REMARK  149  A    between atoms: _388  and  _391
REMARK  150  A    between atoms: _391  and  _392
REMARK  151  A    between atoms: _395  and  _397
REMARK  152  A    between atoms: _397  and  _398
REMARK  153  A    between atoms: _397  and  _400
REMARK  154  A    between atoms: _400  and  _401
REMARK  155  A    between atoms: _403  and  _405
REMARK  156  A    between atoms: _405  and  _406
REMARK  157  A    between atoms: _405  and  _408
REMARK  158  A    between atoms: _408  and  _409
REMARK  159  A    between atoms: _409  and  _410
REMARK  160  A    between atoms: _410  and  _411
REMARK  161  A    between atoms: _411  and  _412
REMARK  162  A    between atoms: _416  and  _418
REMARK  163  A    between atoms: _418  and  _419
REMARK  164  A    between atoms: _418  and  _421
REMARK  165  A    between atoms: _421  and  _422
REMARK  166  A    between atoms: _426  and  _427
REMARK  167  A    between atoms: _432  and  _434
REMARK  168  A    between atoms: _434  and  _435
REMARK  169  A    between atoms: _437  and  _439
REMARK  170  A    between atoms: _439  and  _440
REMARK  171  A    between atoms: _439  and  _442
REMARK  172  A    between atoms: _442  and  _443
REMARK  173  A    between atoms: _449  and  _451
REMARK  174  A    between atoms: _451  and  _452
REMARK  175  A    between atoms: _451  and  _454
REMARK  176  A    between atoms: _454  and  _455
REMARK  177  A    between atoms: _455  and  _456
REMARK  178  A    between atoms: _456  and  _457
REMARK  179  A    between atoms: _466  and  _468
REMARK  180  A    between atoms: _468  and  _469
REMARK  181  A    between atoms: _468  and  _471
REMARK  182  A    between atoms: _474  and  _476
REMARK  183  A    between atoms: _476  and  _477
REMARK  184  A    between atoms: _479  and  _481
REMARK  185  A    between atoms: _481  and  _482
REMARK  186  A    between atoms: _485  and  _487
REMARK  187  A    between atoms: _487  and  _488
REMARK  188  A    between atoms: _487  and  _490
REMARK  189  A    between atoms: _490  and  _491
REMARK  190  A    between atoms: _494  and  _496
REMARK  191  A    between atoms: _496  and  _497
REMARK  192  A    between atoms: _496  and  _499
REMARK  193  A    between atoms: _499  and  _500
REMARK  194  A    between atoms: _506  and  _508
REMARK  195  A    between atoms: _508  and  _509
REMARK  196  A    between atoms: _508  and  _511
REMARK  197  A    between atoms: _511  and  _512
REMARK  198  A    between atoms: _514  and  _516
REMARK  199  A    between atoms: _516  and  _517
REMARK  200  A    between atoms: _516  and  _519
REMARK  201  A    between atoms: _521  and  _523
REMARK  202  A    between atoms: _523  and  _524
REMARK  203  A    between atoms: _523  and  _526
REMARK  204  A    between atoms: _526  and  _527
REMARK  205  A    between atoms: _527  and  _528
REMARK  206  A    between atoms: _528  and  _529
REMARK  207  A    between atoms: _538  and  _540
REMARK  208  A    between atoms: _540  and  _541
REMARK  209  A    between atoms: _540  and  _543
REMARK  210  A    between atoms: _545  and  _547
REMARK  211  A    between atoms: _547  and  _548
REMARK  212  A    between atoms: _547  and  _550
REMARK  213  A    between atoms: _550  and  _551
REMARK  214  A    between atoms: _556  and  _558
REMARK  215  A    between atoms: _558  and  _559
REMARK  216  A    between atoms: _558  and  _561
REMARK  217  A    between atoms: _561  and  _562
REMARK  218  A    between atoms: _565  and  _567
REMARK  219  A    between atoms: _567  and  _568
REMARK  220  A    between atoms: _567  and  _570
REMARK  221  A    between atoms: _570  and  _571
REMARK  222  A    between atoms: _571  and  _572
REMARK  223  A    between atoms: _577  and  _579
REMARK  224  A    between atoms: _579  and  _580
REMARK  225  A    between atoms: _579  and  _582
REMARK  226  A    between atoms: _582  and  _583
REMARK  227  A    between atoms: _586  and  _588
REMARK  228  A    between atoms: _588  and  _589
REMARK  229  A    between atoms: _588  and  _591
REMARK  230  A    between atoms: _591  and  _592
REMARK  231  A    between atoms: _597  and  _598
REMARK  232  A    between atoms: _600  and  _602
REMARK  233  A    between atoms: _602  and  _603
REMARK  234  A    between atoms: _602  and  _605
REMARK  235  A    between atoms: _605  and  _606
REMARK  236  A    between atoms: _608  and  _610
REMARK  237  A    between atoms: _610  and  _611
REMARK  238  A    between atoms: _610  and  _613
REMARK  239  A    between atoms: _613  and  _614
REMARK  240  A    between atoms: _620  and  _622
REMARK  241  A    between atoms: _622  and  _623
REMARK  242  A    between atoms: _622  and  _625
REMARK  243  A    between atoms: _625  and  _626
REMARK                            x       y       z     vdW  Elec       q    Type
REMARK                         _______ _______ _______ _____ _____    ______ ____
ROOT
ATOM      1  O   HOH     1      14.384  -5.897  25.728  0.00  0.00    +0.000 OA
ENDROOT
TORSDOF 0
REMARK  Name = ../refined-set-2016/1m7y/1m7y_pocket.pdb
REMARK  243 active torsions:
REMARK  status: ('A' for Active; 'I' for Inactive)
REMARK    1  A    between atoms: _1  and  _3
REMARK    2  A    between atoms: _3  and  _4
REMARK    3  A    between atoms: _3  and  _6
REMARK    4  A    between atoms: _6  and  _7
REMARK    5  A    between atoms: _12  and  _13
REMARK    6  A    between atoms: _15  and  _17
REMARK    7  A    between atoms: _17  and  _18
REMARK    8  A    between atoms: _17  and  _20
REMARK    9  A    between atoms: _20  and  _21
REMARK   10  A    between atoms: _27  and  _29
REMARK   11  A    between atoms: _29  and  _30
REMARK   12  A    between atoms: _29  and  _32
REMARK   13  A    between atoms: _32  and  _33
REMARK   14  A    between atoms: _43  and  _45
REMARK   15  A    between atoms: _45  and  _46
REMARK   16  A    between atoms: _45  and  _48
REMARK   17  A    between atoms: _48  and  _49
REMARK   18  A    between atoms: _49  and  _50
REMARK   19  A    between atoms: _55  and  _57
REMARK   20  A    between atoms: _57  and  _58
REMARK   21  A    between atoms: _60  and  _62
REMARK   22  A    between atoms: _62  and  _63
REMARK   23  A    between atoms: _62  and  _65
REMARK   24  A    between atoms: _65  and  _66
REMARK   25  A    between atoms: _69  and  _71
REMARK   26  A    between atoms: _71  and  _72
REMARK   27  A    between atoms: _75  and  _77
REMARK   28  A    between atoms: _77  and  _78
REMARK   29  A    between atoms: _77  and  _80
REMARK   30  A    between atoms: _80  and  _81
REMARK   31  A    between atoms: _81  and  _82
REMARK   32  A    between atoms: _85  and  _87
REMARK   33  A    between atoms: _87  and  _88
REMARK   34  A    between atoms: _87  and  _90
REMARK   35  A    between atoms: _90  and  _91
REMARK   36  A    between atoms: _96  and  _98
REMARK   37  A    between atoms: _98  and  _99
REMARK   38  A    between atoms: _98  and  _101
REMARK   39  A    between atoms: _101  and  _102
REMARK   40  A    between atoms: _105  and  _107
REMARK   41  A    between atoms: _107  and  _108
REMARK   42  A    between atoms: _111  and  _113
REMARK   43  A    between atoms: _113  and  _114
REMARK   44  A    between atoms: _116  and  _118
REMARK   45  A    between atoms: _118  and  _119
REMARK   46  A    between atoms: _122  and  _124
REMARK   47  A    between atoms: _124  and  _125
REMARK   48  A    between atoms: _124  and  _127
REMARK   49  A    between atoms: _127  and  _128
REMARK   50  A    between atoms: _131  and  _133
REMARK   51  A    between atoms: _133  and  _134
REMARK   52  A    between atoms: _133  and  _136
REMARK   53  A    between atoms: _136  and  _137
REMARK   54  A    between atoms: _139  and  _141
REMARK   55  A    between atoms: _141  and  _142
REMARK   56  A    between atoms: _145  and  _147
REMARK   57  A    between atoms: _147  and  _148
REMARK   58  A    between atoms: _147  and  _150
REMARK   59  A    between atoms: _150  and  _151
REMARK   60  A    between atoms: _156  and  _158
REMARK   61  A    between atoms: _158  and  _159
REMARK   62  A    between atoms: _158  and  _161
REMARK   63  A    between atoms: _161  and  _162
REMARK   64  A    between atoms: _162  and  _163
REMARK   65  A    between atoms: _166  and  _168
REMARK   66  A    between atoms: _168  and  _169
REMARK   67  A    between atoms: _168  and  _171
REMARK   68  A    between atoms: _171  and  _172
REMARK   69  A    between atoms: _177  and  _178
REMARK   70  A    between atoms: _180  and  _182
REMARK   71  A    between atoms: _182  and  _183
REMARK   72  A    between atoms: _182  and  _185
REMARK   73  A    between atoms: _185  and  _186
REMARK   74  A    between atoms: _191  and  _192
REMARK   75  A    between atoms: _195  and  _196
REMARK   76  A    between atoms: _201  and  _203
REMARK   77  A    between atoms: _203  and  _204
REMARK   78  A    between atoms: _206  and  _208
REMARK   79  A    between atoms: _208  and  _209
REMARK   80  A    between atoms: _208  and  _211
REMARK   81  A    between atoms: _211  and  _212
REMARK   82  A    between atoms: _218  and  _220
REMARK   83  A    between atoms: _220  and  _221
REMARK   84  A    between atoms: _220  and  _223
REMARK   85  A    between atoms: _223  and  _224
REMARK   86  A    between atoms: _224  and  _225
REMARK   87  A    between atoms: _225  and  _226
REMARK   88  A    between atoms: _235  and  _237
REMARK   89  A    between atoms: _237  and  _238
REMARK   90  A    between atoms: _237  and  _240
REMARK   91  A    between atoms: _240  and  _241
REMARK   92  A    between atoms: _244  and  _246
REMARK   93  A    between atoms: _246  and  _247
REMARK   94  A    between atoms: _246  and  _249
REMARK   95  A    between atoms: _249  and  _250
REMARK   96  A    between atoms: _253  and  _255
REMARK   97  A    between atoms: _255  and  _256
REMARK   98  A    between atoms: _255  and  _258
REMARK   99  A    between atoms: _261  and  _263
REMARK  100  A    between atoms: _263  and  _264
REMARK  101  A    between atoms: _263  and  _266
REMARK  102  A    between atoms: _266  and  _267
REMARK  103  A    between atoms: _270  and  _272
REMARK  104  A    between atoms: _272  and  _273
REMARK  105  A    between atoms: _272  and  _275
REMARK  106  A    between atoms: _275  and  _276
REMARK  107  A    between atoms: _282  and  _283
REMARK  108  A    between atoms: _288  and  _290
REMARK  109  A    between atoms: _290  and  _291
REMARK  110  A    between atoms: _290  and  _293
REMARK  111  A    between atoms: _293  and  _294
REMARK  112  A    between atoms: _296  and  _298
REMARK  113  A    between atoms: _298  and  _299
REMARK  114  A    between atoms: _298  and  _301
REMARK  115  A    between atoms: _301  and  _302
REMARK  116  A    between atoms: _308  and  _309
REMARK  117  A    between atoms: _314  and  _316
REMARK  118  A    between atoms: _316  and  _317
REMARK  119  A    between atoms: _316  and  _319
REMARK  120  A    between atoms: _319  and  _320
REMARK  121  A    between atoms: _323  and  _325
REMARK  122  A    between atoms: _325  and  _326
REMARK  123  A    between atoms: _325  and  _328
REMARK  124  A    between atoms: _328  and  _329
REMARK  125  A    between atoms: _329  and  _330
REMARK  126  A    between atoms: _333  and  _335
REMARK  127  A    between atoms: _335  and  _336
REMARK  128  A    between atoms: _335  and  _338
REMARK  129  A    between atoms: _338  and  _339
REMARK  130  A    between atoms: _342  and  _344
REMARK  131  A    between atoms: _344  and  _345
REMARK  132  A    between atoms: _344  and  _347
REMARK  133  A    between atoms: _347  and  _348
REMARK  134  A    between atoms: _353  and  _354
REMARK  135  A    between atoms: _356  and  _358
REMARK  136  A    between atoms: _358  and  _359
REMARK  137  A    between atoms: _358  and  _361
REMARK  138  A    between atoms: _364  and  _366
REMARK  139  A    between atoms: _366  and  _367
REMARK  140  A    between atoms: _366  and  _369
REMARK  141  A    between atoms: _369  and  _370
REMARK  142  A    between atoms: _375  and  _376
REMARK  143  A    between atoms: _378  and  _380
REMARK  144  A    between atoms: _380  and  _381
REMARK  145  A    between atoms: _380  and  _383
REMARK  146  A    between atoms: _383  and  _384
REMARK  147  A    between atoms: _386  and  _388
REMARK  148  A    between atoms: _388  and  _389
REMARK  149  A    between atoms: _388  and  _391
REMARK  150  A    between atoms: _391  and  _392
REMARK  151  A    between atoms: _395  and  _397
REMARK  152  A    between atoms: _397  and  _398
REMARK  153  A    between atoms: _397  and  _400
REMARK  154  A    between atoms: _400  and  _401
REMARK  155  A    between atoms: _403  and  _405
REMARK  156  A    between atoms: _405  and  _406
REMARK  157  A    between atoms: _405  and  _408
REMARK  158  A    between atoms: _408  and  _409
REMARK  159  A    between atoms: _409  and  _410
REMARK  160  A    between atoms: _410  and  _411
REMARK  161  A    between atoms: _411  and  _412
REMARK  162  A    between atoms: _416  and  _418
REMARK  163  A    between atoms: _418  and  _419
REMARK  164  A    between atoms: _418  and  _421
REMARK  165  A    between atoms: _421  and  _422
REMARK  166  A    between atoms: _426  and  _427
REMARK  167  A    between atoms: _432  and  _434
REMARK  168  A    between atoms: _434  and  _435
REMARK  169  A    between atoms: _437  and  _439
REMARK  170  A    between atoms: _439  and  _440
REMARK  171  A    between atoms: _439  and  _442
REMARK  172  A    between atoms: _442  and  _443
REMARK  173  A    between atoms: _449  and  _451
REMARK  174  A    between atoms: _451  and  _452
REMARK  175  A    between atoms: _451  and  _454
REMARK  176  A    between atoms: _454  and  _455
REMARK  177  A    between atoms: _455  and  _456
REMARK  178  A    between atoms: _456  and  _457
REMARK  179  A    between atoms: _466  and  _468
REMARK  180  A    between atoms: _468  and  _469
REMARK  181  A    between atoms: _468  and  _471
REMARK  182  A    between atoms: _474  and  _476
REMARK  183  A    between atoms: _476  and  _477
REMARK  184  A    between atoms: _479  and  _481
REMARK  185  A    between atoms: _481  and  _482
REMARK  186  A    between atoms: _485  and  _487
REMARK  187  A    between atoms: _487  and  _488
REMARK  188  A    between atoms: _487  and  _490
REMARK  189  A    between atoms: _490  and  _491
REMARK  190  A    between atoms: _494  and  _496
REMARK  191  A    between atoms: _496  and  _497
REMARK  192  A    between atoms: _496  and  _499
REMARK  193  A    between atoms: _499  and  _500
REMARK  194  A    between atoms: _506  and  _508
REMARK  195  A    between atoms: _508  and  _509
REMARK  196  A    between atoms: _508  and  _511
REMARK  197  A    between atoms: _511  and  _512
REMARK  198  A    between atoms: _514  and  _516
REMARK  199  A    between atoms: _516  and  _517
REMARK  200  A    between atoms: _516  and  _519
REMARK  201  A    between atoms: _521  and  _523
REMARK  202  A    between atoms: _523  and  _524
REMARK  203  A    between atoms: _523  and  _526
REMARK  204  A    between atoms: _526  and  _527
REMARK  205  A    between atoms: _527  and  _528
REMARK  206  A    between atoms: _528  and  _529
REMARK  207  A    between atoms: _538  and  _540
REMARK  208  A    between atoms: _540  and  _541
REMARK  209  A    between atoms: _540  and  _543
REMARK  210  A    between atoms: _545  and  _547
REMARK  211  A    between atoms: _547  and  _548
REMARK  212  A    between atoms: _547  and  _550
REMARK  213  A    between atoms: _550  and  _551
REMARK  214  A    between atoms: _556  and  _558
REMARK  215  A    between atoms: _558  and  _559
REMARK  216  A    between atoms: _558  and  _561
REMARK  217  A    between atoms: _561  and  _562
REMARK  218  A    between atoms: _565  and  _567
REMARK  219  A    between atoms: _567  and  _568
REMARK  220  A    between atoms: _567  and  _570
REMARK  221  A    between atoms: _570  and  _571
REMARK  222  A    between atoms: _571  and  _572
REMARK  223  A    between atoms: _577  and  _579
REMARK  224  A    between atoms: _579  and  _580
REMARK  225  A    between atoms: _579  and  _582
REMARK  226  A    between atoms: _582  and  _583
REMARK  227  A    between atoms: _586  and  _588
REMARK  228  A    between atoms: _588  and  _589
REMARK  229  A    between atoms: _588  and  _591
REMARK  230  A    between atoms: _591  and  _592
REMARK  231  A    between atoms: _597  and  _598
REMARK  232  A    between atoms: _600  and  _602
REMARK  233  A    between atoms: _602  and  _603
REMARK  234  A    between atoms: _602  and  _605
REMARK  235  A    between atoms: _605  and  _606
REMARK  236  A    between atoms: _608  and  _610
REMARK  237  A    between atoms: _610  and  _611
REMARK  238  A    between atoms: _610  and  _613
REMARK  239  A    between atoms: _613  and  _614
REMARK  240  A    between atoms: _620  and  _622
REMARK  241  A    between atoms: _622  and  _623
REMARK  242  A    between atoms: _622  and  _625
REMARK  243  A    between atoms: _625  and  _626
REMARK                            x       y       z     vdW  Elec       q    Type
REMARK                         _______ _______ _______ _____ _____    ______ ____
ROOT
ATOM      1  O   HOH     1      22.991   8.560  13.879  0.00  0.00    +0.000 OA
ENDROOT
TORSDOF 0
REMARK  Name = ../refined-set-2016/1m7y/1m7y_pocket.pdb
REMARK  243 active torsions:
REMARK  status: ('A' for Active; 'I' for Inactive)
REMARK    1  A    between atoms: _1  and  _3
REMARK    2  A    between atoms: _3  and  _4
REMARK    3  A    between atoms: _3  and  _6
REMARK    4  A    between atoms: _6  and  _7
REMARK    5  A    between atoms: _12  and  _13
REMARK    6  A    between atoms: _15  and  _17
REMARK    7  A    between atoms: _17  and  _18
REMARK    8  A    between atoms: _17  and  _20
REMARK    9  A    between atoms: _20  and  _21
REMARK   10  A    between atoms: _27  and  _29
REMARK   11  A    between atoms: _29  and  _30
REMARK   12  A    between atoms: _29  and  _32
REMARK   13  A    between atoms: _32  and  _33
REMARK   14  A    between atoms: _43  and  _45
REMARK   15  A    between atoms: _45  and  _46
REMARK   16  A    between atoms: _45  and  _48
REMARK   17  A    between atoms: _48  and  _49
REMARK   18  A    between atoms: _49  and  _50
REMARK   19  A    between atoms: _55  and  _57
REMARK   20  A    between atoms: _57  and  _58
REMARK   21  A    between atoms: _60  and  _62
REMARK   22  A    between atoms: _62  and  _63
REMARK   23  A    between atoms: _62  and  _65
REMARK   24  A    between atoms: _65  and  _66
REMARK   25  A    between atoms: _69  and  _71
REMARK   26  A    between atoms: _71  and  _72
REMARK   27  A    between atoms: _75  and  _77
REMARK   28  A    between atoms: _77  and  _78
REMARK   29  A    between atoms: _77  and  _80
REMARK   30  A    between atoms: _80  and  _81
REMARK   31  A    between atoms: _81  and  _82
REMARK   32  A    between atoms: _85  and  _87
REMARK   33  A    between atoms: _87  and  _88
REMARK   34  A    between atoms: _87  and  _90
REMARK   35  A    between atoms: _90  and  _91
REMARK   36  A    between atoms: _96  and  _98
REMARK   37  A    between atoms: _98  and  _99
REMARK   38  A    between atoms: _98  and  _101
REMARK   39  A    between atoms: _101  and  _102
REMARK   40  A    between atoms: _105  and  _107
REMARK   41  A    between atoms: _107  and  _108
REMARK   42  A    between atoms: _111  and  _113
REMARK   43  A    between atoms: _113  and  _114
REMARK   44  A    between atoms: _116  and  _118
REMARK   45  A    between atoms: _118  and  _119
REMARK   46  A    between atoms: _122  and  _124
REMARK   47  A    between atoms: _124  and  _125
REMARK   48  A    between atoms: _124  and  _127
REMARK   49  A    between atoms: _127  and  _128
REMARK   50  A    between atoms: _131  and  _133
REMARK   51  A    between atoms: _133  and  _134
REMARK   52  A    between atoms: _133  and  _136
REMARK   53  A    between atoms: _136  and  _137
REMARK   54  A    between atoms: _139  and  _141
REMARK   55  A    between atoms: _141  and  _142
REMARK   56  A    between atoms: _145  and  _147
REMARK   57  A    between atoms: _147  and  _148
REMARK   58  A    between atoms: _147  and  _150
REMARK   59  A    between atoms: _150  and  _151
REMARK   60  A    between atoms: _156  and  _158
REMARK   61  A    between atoms: _158  and  _159
REMARK   62  A    between atoms: _158  and  _161
REMARK   63  A    between atoms: _161  and  _162
REMARK   64  A    between atoms: _162  and  _163
REMARK   65  A    between atoms: _166  and  _168
REMARK   66  A    between atoms: _168  and  _169
REMARK   67  A    between atoms: _168  and  _171
REMARK   68  A    between atoms: _171  and  _172
REMARK   69  A    between atoms: _177  and  _178
REMARK   70  A    between atoms: _180  and  _182
REMARK   71  A    between atoms: _182  and  _183
REMARK   72  A    between atoms: _182  and  _185
REMARK   73  A    between atoms: _185  and  _186
REMARK   74  A    between atoms: _191  and  _192
REMARK   75  A    between atoms: _195  and  _196
REMARK   76  A    between atoms: _201  and  _203
REMARK   77  A    between atoms: _203  and  _204
REMARK   78  A    between atoms: _206  and  _208
REMARK   79  A    between atoms: _208  and  _209
REMARK   80  A    between atoms: _208  and  _211
REMARK   81  A    between atoms: _211  and  _212
REMARK   82  A    between atoms: _218  and  _220
REMARK   83  A    between atoms: _220  and  _221
REMARK   84  A    between atoms: _220  and  _223
REMARK   85  A    between atoms: _223  and  _224
REMARK   86  A    between atoms: _224  and  _225
REMARK   87  A    between atoms: _225  and  _226
REMARK   88  A    between atoms: _235  and  _237
REMARK   89  A    between atoms: _237  and  _238
REMARK   90  A    between atoms: _237  and  _240
REMARK   91  A    between atoms: _240  and  _241
REMARK   92  A    between atoms: _244  and  _246
REMARK   93  A    between atoms: _246  and  _247
REMARK   94  A    between atoms: _246  and  _249
REMARK   95  A    between atoms: _249  and  _250
REMARK   96  A    between atoms: _253  and  _255
REMARK   97  A    between atoms: _255  and  _256
REMARK   98  A    between atoms: _255  and  _258
REMARK   99  A    between atoms: _261  and  _263
REMARK  100  A    between atoms: _263  and  _264
REMARK  101  A    between atoms: _263  and  _266
REMARK  102  A    between atoms: _266  and  _267
REMARK  103  A    between atoms: _270  and  _272
REMARK  104  A    between atoms: _272  and  _273
REMARK  105  A    between atoms: _272  and  _275
REMARK  106  A    between atoms: _275  and  _276
REMARK  107  A    between atoms: _282  and  _283
REMARK  108  A    between atoms: _288  and  _290
REMARK  109  A    between atoms: _290  and  _291
REMARK  110  A    between atoms: _290  and  _293
REMARK  111  A    between atoms: _293  and  _294
REMARK  112  A    between atoms: _296  and  _298
REMARK  113  A    between atoms: _298  and  _299
REMARK  114  A    between atoms: _298  and  _301
REMARK  115  A    between atoms: _301  and  _302
REMARK  116  A    between atoms: _308  and  _309
REMARK  117  A    between atoms: _314  and  _316
REMARK  118  A    between atoms: _316  and  _317
REMARK  119  A    between atoms: _316  and  _319
REMARK  120  A    between atoms: _319  and  _320
REMARK  121  A    between atoms: _323  and  _325
REMARK  122  A    between atoms: _325  and  _326
REMARK  123  A    between atoms: _325  and  _328
REMARK  124  A    between atoms: _328  and  _329
REMARK  125  A    between atoms: _329  and  _330
REMARK  126  A    between atoms: _333  and  _335
REMARK  127  A    between atoms: _335  and  _336
REMARK  128  A    between atoms: _335  and  _338
REMARK  129  A    between atoms: _338  and  _339
REMARK  130  A    between atoms: _342  and  _344
REMARK  131  A    between atoms: _344  and  _345
REMARK  132  A    between atoms: _344  and  _347
REMARK  133  A    between atoms: _347  and  _348
REMARK  134  A    between atoms: _353  and  _354
REMARK  135  A    between atoms: _356  and  _358
REMARK  136  A    between atoms: _358  and  _359
REMARK  137  A    between atoms: _358  and  _361
REMARK  138  A    between atoms: _364  and  _366
REMARK  139  A    between atoms: _366  and  _367
REMARK  140  A    between atoms: _366  and  _369
REMARK  141  A    between atoms: _369  and  _370
REMARK  142  A    between atoms: _375  and  _376
REMARK  143  A    between atoms: _378  and  _380
REMARK  144  A    between atoms: _380  and  _381
REMARK  145  A    between atoms: _380  and  _383
REMARK  146  A    between atoms: _383  and  _384
REMARK  147  A    between atoms: _386  and  _388
REMARK  148  A    between atoms: _388  and  _389
REMARK  149  A    between atoms: _388  and  _391
REMARK  150  A    between atoms: _391  and  _392
REMARK  151  A    between atoms: _395  and  _397
REMARK  152  A    between atoms: _397  and  _398
REMARK  153  A    between atoms: _397  and  _400
REMARK  154  A    between atoms: _400  and  _401
REMARK  155  A    between atoms: _403  and  _405
REMARK  156  A    between atoms: _405  and  _406
REMARK  157  A    between atoms: _405  and  _408
REMARK  158  A    between atoms: _408  and  _409
REMARK  159  A    between atoms: _409  and  _410
REMARK  160  A    between atoms: _410  and  _411
REMARK  161  A    between atoms: _411  and  _412
REMARK  162  A    between atoms: _416  and  _418
REMARK  163  A    between atoms: _418  and  _419
REMARK  164  A    between atoms: _418  and  _421
REMARK  165  A    between atoms: _421  and  _422
REMARK  166  A    between atoms: _426  and  _427
REMARK  167  A    between atoms: _432  and  _434
REMARK  168  A    between atoms: _434  and  _435
REMARK  169  A    between atoms: _437  and  _439
REMARK  170  A    between atoms: _439  and  _440
REMARK  171  A    between atoms: _439  and  _442
REMARK  172  A    between atoms: _442  and  _443
REMARK  173  A    between atoms: _449  and  _451
REMARK  174  A    between atoms: _451  and  _452
REMARK  175  A    between atoms: _451  and  _454
REMARK  176  A    between atoms: _454  and  _455
REMARK  177  A    between atoms: _455  and  _456
REMARK  178  A    between atoms: _456  and  _457
REMARK  179  A    between atoms: _466  and  _468
REMARK  180  A    between atoms: _468  and  _469
REMARK  181  A    between atoms: _468  and  _471
REMARK  182  A    between atoms: _474  and  _476
REMARK  183  A    between atoms: _476  and  _477
REMARK  184  A    between atoms: _479  and  _481
REMARK  185  A    between atoms: _481  and  _482
REMARK  186  A    between atoms: _485  and  _487
REMARK  187  A    between atoms: _487  and  _488
REMARK  188  A    between atoms: _487  and  _490
REMARK  189  A    between atoms: _490  and  _491
REMARK  190  A    between atoms: _494  and  _496
REMARK  191  A    between atoms: _496  and  _497
REMARK  192  A    between atoms: _496  and  _499
REMARK  193  A    between atoms: _499  and  _500
REMARK  194  A    between atoms: _506  and  _508
REMARK  195  A    between atoms: _508  and  _509
REMARK  196  A    between atoms: _508  and  _511
REMARK  197  A    between atoms: _511  and  _512
REMARK  198  A    between atoms: _514  and  _516
REMARK  199  A    between atoms: _516  and  _517
REMARK  200  A    between atoms: _516  and  _519
REMARK  201  A    between atoms: _521  and  _523
REMARK  202  A    between atoms: _523  and  _524
REMARK  203  A    between atoms: _523  and  _526
REMARK  204  A    between atoms: _526  and  _527
REMARK  205  A    between atoms: _527  and  _528
REMARK  206  A    between atoms: _528  and  _529
REMARK  207  A    between atoms: _538  and  _540
REMARK  208  A    between atoms: _540  and  _541
REMARK  209  A    between atoms: _540  and  _543
REMARK  210  A    between atoms: _545  and  _547
REMARK  211  A    between atoms: _547  and  _548
REMARK  212  A    between atoms: _547  and  _550
REMARK  213  A    between atoms: _550  and  _551
REMARK  214  A    between atoms: _556  and  _558
REMARK  215  A    between atoms: _558  and  _559
REMARK  216  A    between atoms: _558  and  _561
REMARK  217  A    between atoms: _561  and  _562
REMARK  218  A    between atoms: _565  and  _567
REMARK  219  A    between atoms: _567  and  _568
REMARK  220  A    between atoms: _567  and  _570
REMARK  221  A    between atoms: _570  and  _571
REMARK  222  A    between atoms: _571  and  _572
REMARK  223  A    between atoms: _577  and  _579
REMARK  224  A    between atoms: _579  and  _580
REMARK  225  A    between atoms: _579  and  _582
REMARK  226  A    between atoms: _582  and  _583
REMARK  227  A    between atoms: _586  and  _588
REMARK  228  A    between atoms: _588  and  _589
REMARK  229  A    between atoms: _588  and  _591
REMARK  230  A    between atoms: _591  and  _592
REMARK  231  A    between atoms: _597  and  _598
REMARK  232  A    between atoms: _600  and  _602
REMARK  233  A    between atoms: _602  and  _603
REMARK  234  A    between atoms: _602  and  _605
REMARK  235  A    between atoms: _605  and  _606
REMARK  236  A    between atoms: _608  and  _610
REMARK  237  A    between atoms: _610  and  _611
REMARK  238  A    between atoms: _610  and  _613
REMARK  239  A    between atoms: _613  and  _614
REMARK  240  A    between atoms: _620  and  _622
REMARK  241  A    between atoms: _622  and  _623
REMARK  242  A    between atoms: _622  and  _625
REMARK  243  A    between atoms: _625  and  _626
REMARK                            x       y       z     vdW  Elec       q    Type
REMARK                         _______ _______ _______ _____ _____    ______ ____
ROOT
ATOM      1  O   HOH     1       9.408   0.892  22.752  0.00  0.00    +0.000 OA
ENDROOT
TORSDOF 0
REMARK  Name = ../refined-set-2016/1m7y/1m7y_pocket.pdb
REMARK  243 active torsions:
REMARK  status: ('A' for Active; 'I' for Inactive)
REMARK    1  A    between atoms: _1  and  _3
REMARK    2  A    between atoms: _3  and  _4
REMARK    3  A    between atoms: _3  and  _6
REMARK    4  A    between atoms: _6  and  _7
REMARK    5  A    between atoms: _12  and  _13
REMARK    6  A    between atoms: _15  and  _17
REMARK    7  A    between atoms: _17  and  _18
REMARK    8  A    between atoms: _17  and  _20
REMARK    9  A    between atoms: _20  and  _21
REMARK   10  A    between atoms: _27  and  _29
REMARK   11  A    between atoms: _29  and  _30
REMARK   12  A    between atoms: _29  and  _32
REMARK   13  A    between atoms: _32  and  _33
REMARK   14  A    between atoms: _43  and  _45
REMARK   15  A    between atoms: _45  and  _46
REMARK   16  A    between atoms: _45  and  _48
REMARK   17  A    between atoms: _48  and  _49
REMARK   18  A    between atoms: _49  and  _50
REMARK   19  A    between atoms: _55  and  _57
REMARK   20  A    between atoms: _57  and  _58
REMARK   21  A    between atoms: _60  and  _62
REMARK   22  A    between atoms: _62  and  _63
REMARK   23  A    between atoms: _62  and  _65
REMARK   24  A    between atoms: _65  and  _66
REMARK   25  A    between atoms: _69  and  _71
REMARK   26  A    between atoms: _71  and  _72
REMARK   27  A    between atoms: _75  and  _77
REMARK   28  A    between atoms: _77  and  _78
REMARK   29  A    between atoms: _77  and  _80
REMARK   30  A    between atoms: _80  and  _81
REMARK   31  A    between atoms: _81  and  _82
REMARK   32  A    between atoms: _85  and  _87
REMARK   33  A    between atoms: _87  and  _88
REMARK   34  A    between atoms: _87  and  _90
REMARK   35  A    between atoms: _90  and  _91
REMARK   36  A    between atoms: _96  and  _98
REMARK   37  A    between atoms: _98  and  _99
REMARK   38  A    between atoms: _98  and  _101
REMARK   39  A    between atoms: _101  and  _102
REMARK   40  A    between atoms: _105  and  _107
REMARK   41  A    between atoms: _107  and  _108
REMARK   42  A    between atoms: _111  and  _113
REMARK   43  A    between atoms: _113  and  _114
REMARK   44  A    between atoms: _116  and  _118
REMARK   45  A    between atoms: _118  and  _119
REMARK   46  A    between atoms: _122  and  _124
REMARK   47  A    between atoms: _124  and  _125
REMARK   48  A    between atoms: _124  and  _127
REMARK   49  A    between atoms: _127  and  _128
REMARK   50  A    between atoms: _131  and  _133
REMARK   51  A    between atoms: _133  and  _134
REMARK   52  A    between atoms: _133  and  _136
REMARK   53  A    between atoms: _136  and  _137
REMARK   54  A    between atoms: _139  and  _141
REMARK   55  A    between atoms: _141  and  _142
REMARK   56  A    between atoms: _145  and  _147
REMARK   57  A    between atoms: _147  and  _148
REMARK   58  A    between atoms: _147  and  _150
REMARK   59  A    between atoms: _150  and  _151
REMARK   60  A    between atoms: _156  and  _158
REMARK   61  A    between atoms: _158  and  _159
REMARK   62  A    between atoms: _158  and  _161
REMARK   63  A    between atoms: _161  and  _162
REMARK   64  A    between atoms: _162  and  _163
REMARK   65  A    between atoms: _166  and  _168
REMARK   66  A    between atoms: _168  and  _169
REMARK   67  A    between atoms: _168  and  _171
REMARK   68  A    between atoms: _171  and  _172
REMARK   69  A    between atoms: _177  and  _178
REMARK   70  A    between atoms: _180  and  _182
REMARK   71  A    between atoms: _182  and  _183
REMARK   72  A    between atoms: _182  and  _185
REMARK   73  A    between atoms: _185  and  _186
REMARK   74  A    between atoms: _191  and  _192
REMARK   75  A    between atoms: _195  and  _196
REMARK   76  A    between atoms: _201  and  _203
REMARK   77  A    between atoms: _203  and  _204
REMARK   78  A    between atoms: _206  and  _208
REMARK   79  A    between atoms: _208  and  _209
REMARK   80  A    between atoms: _208  and  _211
REMARK   81  A    between atoms: _211  and  _212
REMARK   82  A    between atoms: _218  and  _220
REMARK   83  A    between atoms: _220  and  _221
REMARK   84  A    between atoms: _220  and  _223
REMARK   85  A    between atoms: _223  and  _224
REMARK   86  A    between atoms: _224  and  _225
REMARK   87  A    between atoms: _225  and  _226
REMARK   88  A    between atoms: _235  and  _237
REMARK   89  A    between atoms: _237  and  _238
REMARK   90  A    between atoms: _237  and  _240
REMARK   91  A    between atoms: _240  and  _241
REMARK   92  A    between atoms: _244  and  _246
REMARK   93  A    between atoms: _246  and  _247
REMARK   94  A    between atoms: _246  and  _249
REMARK   95  A    between atoms: _249  and  _250
REMARK   96  A    between atoms: _253  and  _255
REMARK   97  A    between atoms: _255  and  _256
REMARK   98  A    between atoms: _255  and  _258
REMARK   99  A    between atoms: _261  and  _263
REMARK  100  A    between atoms: _263  and  _264
REMARK  101  A    between atoms: _263  and  _266
REMARK  102  A    between atoms: _266  and  _267
REMARK  103  A    between atoms: _270  and  _272
REMARK  104  A    between atoms: _272  and  _273
REMARK  105  A    between atoms: _272  and  _275
REMARK  106  A    between atoms: _275  and  _276
REMARK  107  A    between atoms: _282  and  _283
REMARK  108  A    between atoms: _288  and  _290
REMARK  109  A    between atoms: _290  and  _291
REMARK  110  A    between atoms: _290  and  _293
REMARK  111  A    between atoms: _293  and  _294
REMARK  112  A    between atoms: _296  and  _298
REMARK  113  A    between atoms: _298  and  _299
REMARK  114  A    between atoms: _298  and  _301
REMARK  115  A    between atoms: _301  and  _302
REMARK  116  A    between atoms: _308  and  _309
REMARK  117  A    between atoms: _314  and  _316
REMARK  118  A    between atoms: _316  and  _317
REMARK  119  A    between atoms: _316  and  _319
REMARK  120  A    between atoms: _319  and  _320
REMARK  121  A    between atoms: _323  and  _325
REMARK  122  A    between atoms: _325  and  _326
REMARK  123  A    between atoms: _325  and  _328
REMARK  124  A    between atoms: _328  and  _329
REMARK  125  A    between atoms: _329  and  _330
REMARK  126  A    between atoms: _333  and  _335
REMARK  127  A    between atoms: _335  and  _336
REMARK  128  A    between atoms: _335  and  _338
REMARK  129  A    between atoms: _338  and  _339
REMARK  130  A    between atoms: _342  and  _344
REMARK  131  A    between atoms: _344  and  _345
REMARK  132  A    between atoms: _344  and  _347
REMARK  133  A    between atoms: _347  and  _348
REMARK  134  A    between atoms: _353  and  _354
REMARK  135  A    between atoms: _356  and  _358
REMARK  136  A    between atoms: _358  and  _359
REMARK  137  A    between atoms: _358  and  _361
REMARK  138  A    between atoms: _364  and  _366
REMARK  139  A    between atoms: _366  and  _367
REMARK  140  A    between atoms: _366  and  _369
REMARK  141  A    between atoms: _369  and  _370
REMARK  142  A    between atoms: _375  and  _376
REMARK  143  A    between atoms: _378  and  _380
REMARK  144  A    between atoms: _380  and  _381
REMARK  145  A    between atoms: _380  and  _383
REMARK  146  A    between atoms: _383  and  _384
REMARK  147  A    between atoms: _386  and  _388
REMARK  148  A    between atoms: _388  and  _389
REMARK  149  A    between atoms: _388  and  _391
REMARK  150  A    between atoms: _391  and  _392
REMARK  151  A    between atoms: _395  and  _397
REMARK  152  A    between atoms: _397  and  _398
REMARK  153  A    between atoms: _397  and  _400
REMARK  154  A    between atoms: _400  and  _401
REMARK  155  A    between atoms: _403  and  _405
REMARK  156  A    between atoms: _405  and  _406
REMARK  157  A    between atoms: _405  and  _408
REMARK  158  A    between atoms: _408  and  _409
REMARK  159  A    between atoms: _409  and  _410
REMARK  160  A    between atoms: _410  and  _411
REMARK  161  A    between atoms: _411  and  _412
REMARK  162  A    between atoms: _416  and  _418
REMARK  163  A    between atoms: _418  and  _419
REMARK  164  A    between atoms: _418  and  _421
REMARK  165  A    between atoms: _421  and  _422
REMARK  166  A    between atoms: _426  and  _427
REMARK  167  A    between atoms: _432  and  _434
REMARK  168  A    between atoms: _434  and  _435
REMARK  169  A    between atoms: _437  and  _439
REMARK  170  A    between atoms: _439  and  _440
REMARK  171  A    between atoms: _439  and  _442
REMARK  172  A    between atoms: _442  and  _443
REMARK  173  A    between atoms: _449  and  _451
REMARK  174  A    between atoms: _451  and  _452
REMARK  175  A    between atoms: _451  and  _454
REMARK  176  A    between atoms: _454  and  _455
REMARK  177  A    between atoms: _455  and  _456
REMARK  178  A    between atoms: _456  and  _457
REMARK  179  A    between atoms: _466  and  _468
REMARK  180  A    between atoms: _468  and  _469
REMARK  181  A    between atoms: _468  and  _471
REMARK  182  A    between atoms: _474  and  _476
REMARK  183  A    between atoms: _476  and  _477
REMARK  184  A    between atoms: _479  and  _481
REMARK  185  A    between atoms: _481  and  _482
REMARK  186  A    between atoms: _485  and  _487
REMARK  187  A    between atoms: _487  and  _488
REMARK  188  A    between atoms: _487  and  _490
REMARK  189  A    between atoms: _490  and  _491
REMARK  190  A    between atoms: _494  and  _496
REMARK  191  A    between atoms: _496  and  _497
REMARK  192  A    between atoms: _496  and  _499
REMARK  193  A    between atoms: _499  and  _500
REMARK  194  A    between atoms: _506  and  _508
REMARK  195  A    between atoms: _508  and  _509
REMARK  196  A    between atoms: _508  and  _511
REMARK  197  A    between atoms: _511  and  _512
REMARK  198  A    between atoms: _514  and  _516
REMARK  199  A    between atoms: _516  and  _517
REMARK  200  A    between atoms: _516  and  _519
REMARK  201  A    between atoms: _521  and  _523
REMARK  202  A    between atoms: _523  and  _524
REMARK  203  A    between atoms: _523  and  _526
REMARK  204  A    between atoms: _526  and  _527
REMARK  205  A    between atoms: _527  and  _528
REMARK  206  A    between atoms: _528  and  _529
REMARK  207  A    between atoms: _538  and  _540
REMARK  208  A    between atoms: _540  and  _541
REMARK  209  A    between atoms: _540  and  _543
REMARK  210  A    between atoms: _545  and  _547
REMARK  211  A    between atoms: _547  and  _548
REMARK  212  A    between atoms: _547  and  _550
REMARK  213  A    between atoms: _550  and  _551
REMARK  214  A    between atoms: _556  and  _558
REMARK  215  A    between atoms: _558  and  _559
REMARK  216  A    between atoms: _558  and  _561
REMARK  217  A    between atoms: _561  and  _562
REMARK  218  A    between atoms: _565  and  _567
REMARK  219  A    between atoms: _567  and  _568
REMARK  220  A    between atoms: _567  and  _570
REMARK  221  A    between atoms: _570  and  _571
REMARK  222  A    between atoms: _571  and  _572
REMARK  223  A    between atoms: _577  and  _579
REMARK  224  A    between atoms: _579  and  _580
REMARK  225  A    between atoms: _579  and  _582
REMARK  226  A    between atoms: _582  and  _583
REMARK  227  A    between atoms: _586  and  _588
REMARK  228  A    between atoms: _588  and  _589
REMARK  229  A    between atoms: _588  and  _591
REMARK  230  A    between atoms: _591  and  _592
REMARK  231  A    between atoms: _597  and  _598
REMARK  232  A    between atoms: _600  and  _602
REMARK  233  A    between atoms: _602  and  _603
REMARK  234  A    between atoms: _602  and  _605
REMARK  235  A    between atoms: _605  and  _606
REMARK  236  A    between atoms: _608  and  _610
REMARK  237  A    between atoms: _610  and  _611
REMARK  238  A    between atoms: _610  and  _613
REMARK  239  A    between atoms: _613  and  _614
REMARK  240  A    between atoms: _620  and  _622
REMARK  241  A    between atoms: _622  and  _623
REMARK  242  A    between atoms: _622  and  _625
REMARK  243  A    between atoms: _625  and  _626
REMARK                            x       y       z     vdW  Elec       q    Type
REMARK                         _______ _______ _______ _____ _____    ______ ____
ROOT
ATOM      1  O   HOH     1      16.901   2.389  24.449  0.00  0.00    +0.000 OA
ENDROOT
TORSDOF 0
REMARK  Name = ../refined-set-2016/1m7y/1m7y_pocket.pdb
REMARK  243 active torsions:
REMARK  status: ('A' for Active; 'I' for Inactive)
REMARK    1  A    between atoms: _1  and  _3
REMARK    2  A    between atoms: _3  and  _4
REMARK    3  A    between atoms: _3  and  _6
REMARK    4  A    between atoms: _6  and  _7
REMARK    5  A    between atoms: _12  and  _13
REMARK    6  A    between atoms: _15  and  _17
REMARK    7  A    between atoms: _17  and  _18
REMARK    8  A    between atoms: _17  and  _20
REMARK    9  A    between atoms: _20  and  _21
REMARK   10  A    between atoms: _27  and  _29
REMARK   11  A    between atoms: _29  and  _30
REMARK   12  A    between atoms: _29  and  _32
REMARK   13  A    between atoms: _32  and  _33
REMARK   14  A    between atoms: _43  and  _45
REMARK   15  A    between atoms: _45  and  _46
REMARK   16  A    between atoms: _45  and  _48
REMARK   17  A    between atoms: _48  and  _49
REMARK   18  A    between atoms: _49  and  _50
REMARK   19  A    between atoms: _55  and  _57
REMARK   20  A    between atoms: _57  and  _58
REMARK   21  A    between atoms: _60  and  _62
REMARK   22  A    between atoms: _62  and  _63
REMARK   23  A    between atoms: _62  and  _65
REMARK   24  A    between atoms: _65  and  _66
REMARK   25  A    between atoms: _69  and  _71
REMARK   26  A    between atoms: _71  and  _72
REMARK   27  A    between atoms: _75  and  _77
REMARK   28  A    between atoms: _77  and  _78
REMARK   29  A    between atoms: _77  and  _80
REMARK   30  A    between atoms: _80  and  _81
REMARK   31  A    between atoms: _81  and  _82
REMARK   32  A    between atoms: _85  and  _87
REMARK   33  A    between atoms: _87  and  _88
REMARK   34  A    between atoms: _87  and  _90
REMARK   35  A    between atoms: _90  and  _91
REMARK   36  A    between atoms: _96  and  _98
REMARK   37  A    between atoms: _98  and  _99
REMARK   38  A    between atoms: _98  and  _101
REMARK   39  A    between atoms: _101  and  _102
REMARK   40  A    between atoms: _105  and  _107
REMARK   41  A    between atoms: _107  and  _108
REMARK   42  A    between atoms: _111  and  _113
REMARK   43  A    between atoms: _113  and  _114
REMARK   44  A    between atoms: _116  and  _118
REMARK   45  A    between atoms: _118  and  _119
REMARK   46  A    between atoms: _122  and  _124
REMARK   47  A    between atoms: _124  and  _125
REMARK   48  A    between atoms: _124  and  _127
REMARK   49  A    between atoms: _127  and  _128
REMARK   50  A    between atoms: _131  and  _133
REMARK   51  A    between atoms: _133  and  _134
REMARK   52  A    between atoms: _133  and  _136
REMARK   53  A    between atoms: _136  and  _137
REMARK   54  A    between atoms: _139  and  _141
REMARK   55  A    between atoms: _141  and  _142
REMARK   56  A    between atoms: _145  and  _147
REMARK   57  A    between atoms: _147  and  _148
REMARK   58  A    between atoms: _147  and  _150
REMARK   59  A    between atoms: _150  and  _151
REMARK   60  A    between atoms: _156  and  _158
REMARK   61  A    between atoms: _158  and  _159
REMARK   62  A    between atoms: _158  and  _161
REMARK   63  A    between atoms: _161  and  _162
REMARK   64  A    between atoms: _162  and  _163
REMARK   65  A    between atoms: _166  and  _168
REMARK   66  A    between atoms: _168  and  _169
REMARK   67  A    between atoms: _168  and  _171
REMARK   68  A    between atoms: _171  and  _172
REMARK   69  A    between atoms: _177  and  _178
REMARK   70  A    between atoms: _180  and  _182
REMARK   71  A    between atoms: _182  and  _183
REMARK   72  A    between atoms: _182  and  _185
REMARK   73  A    between atoms: _185  and  _186
REMARK   74  A    between atoms: _191  and  _192
REMARK   75  A    between atoms: _195  and  _196
REMARK   76  A    between atoms: _201  and  _203
REMARK   77  A    between atoms: _203  and  _204
REMARK   78  A    between atoms: _206  and  _208
REMARK   79  A    between atoms: _208  and  _209
REMARK   80  A    between atoms: _208  and  _211
REMARK   81  A    between atoms: _211  and  _212
REMARK   82  A    between atoms: _218  and  _220
REMARK   83  A    between atoms: _220  and  _221
REMARK   84  A    between atoms: _220  and  _223
REMARK   85  A    between atoms: _223  and  _224
REMARK   86  A    between atoms: _224  and  _225
REMARK   87  A    between atoms: _225  and  _226
REMARK   88  A    between atoms: _235  and  _237
REMARK   89  A    between atoms: _237  and  _238
REMARK   90  A    between atoms: _237  and  _240
REMARK   91  A    between atoms: _240  and  _241
REMARK   92  A    between atoms: _244  and  _246
REMARK   93  A    between atoms: _246  and  _247
REMARK   94  A    between atoms: _246  and  _249
REMARK   95  A    between atoms: _249  and  _250
REMARK   96  A    between atoms: _253  and  _255
REMARK   97  A    between atoms: _255  and  _256
REMARK   98  A    between atoms: _255  and  _258
REMARK   99  A    between atoms: _261  and  _263
REMARK  100  A    between atoms: _263  and  _264
REMARK  101  A    between atoms: _263  and  _266
REMARK  102  A    between atoms: _266  and  _267
REMARK  103  A    between atoms: _270  and  _272
REMARK  104  A    between atoms: _272  and  _273
REMARK  105  A    between atoms: _272  and  _275
REMARK  106  A    between atoms: _275  and  _276
REMARK  107  A    between atoms: _282  and  _283
REMARK  108  A    between atoms: _288  and  _290
REMARK  109  A    between atoms: _290  and  _291
REMARK  110  A    between atoms: _290  and  _293
REMARK  111  A    between atoms: _293  and  _294
REMARK  112  A    between atoms: _296  and  _298
REMARK  113  A    between atoms: _298  and  _299
REMARK  114  A    between atoms: _298  and  _301
REMARK  115  A    between atoms: _301  and  _302
REMARK  116  A    between atoms: _308  and  _309
REMARK  117  A    between atoms: _314  and  _316
REMARK  118  A    between atoms: _316  and  _317
REMARK  119  A    between atoms: _316  and  _319
REMARK  120  A    between atoms: _319  and  _320
REMARK  121  A    between atoms: _323  and  _325
REMARK  122  A    between atoms: _325  and  _326
REMARK  123  A    between atoms: _325  and  _328
REMARK  124  A    between atoms: _328  and  _329
REMARK  125  A    between atoms: _329  and  _330
REMARK  126  A    between atoms: _333  and  _335
REMARK  127  A    between atoms: _335  and  _336
REMARK  128  A    between atoms: _335  and  _338
REMARK  129  A    between atoms: _338  and  _339
REMARK  130  A    between atoms: _342  and  _344
REMARK  131  A    between atoms: _344  and  _345
REMARK  132  A    between atoms: _344  and  _347
REMARK  133  A    between atoms: _347  and  _348
REMARK  134  A    between atoms: _353  and  _354
REMARK  135  A    between atoms: _356  and  _358
REMARK  136  A    between atoms: _358  and  _359
REMARK  137  A    between atoms: _358  and  _361
REMARK  138  A    between atoms: _364  and  _366
REMARK  139  A    between atoms: _366  and  _367
REMARK  140  A    between atoms: _366  and  _369
REMARK  141  A    between atoms: _369  and  _370
REMARK  142  A    between atoms: _375  and  _376
REMARK  143  A    between atoms: _378  and  _380
REMARK  144  A    between atoms: _380  and  _381
REMARK  145  A    between atoms: _380  and  _383
REMARK  146  A    between atoms: _383  and  _384
REMARK  147  A    between atoms: _386  and  _388
REMARK  148  A    between atoms: _388  and  _389
REMARK  149  A    between atoms: _388  and  _391
REMARK  150  A    between atoms: _391  and  _392
REMARK  151  A    between atoms: _395  and  _397
REMARK  152  A    between atoms: _397  and  _398
REMARK  153  A    between atoms: _397  and  _400
REMARK  154  A    between atoms: _400  and  _401
REMARK  155  A    between atoms: _403  and  _405
REMARK  156  A    between atoms: _405  and  _406
REMARK  157  A    between atoms: _405  and  _408
REMARK  158  A    between atoms: _408  and  _409
REMARK  159  A    between atoms: _409  and  _410
REMARK  160  A    between atoms: _410  and  _411
REMARK  161  A    between atoms: _411  and  _412
REMARK  162  A    between atoms: _416  and  _418
REMARK  163  A    between atoms: _418  and  _419
REMARK  164  A    between atoms: _418  and  _421
REMARK  165  A    between atoms: _421  and  _422
REMARK  166  A    between atoms: _426  and  _427
REMARK  167  A    between atoms: _432  and  _434
REMARK  168  A    between atoms: _434  and  _435
REMARK  169  A    between atoms: _437  and  _439
REMARK  170  A    between atoms: _439  and  _440
REMARK  171  A    between atoms: _439  and  _442
REMARK  172  A    between atoms: _442  and  _443
REMARK  173  A    between atoms: _449  and  _451
REMARK  174  A    between atoms: _451  and  _452
REMARK  175  A    between atoms: _451  and  _454
REMARK  176  A    between atoms: _454  and  _455
REMARK  177  A    between atoms: _455  and  _456
REMARK  178  A    between atoms: _456  and  _457
REMARK  179  A    between atoms: _466  and  _468
REMARK  180  A    between atoms: _468  and  _469
REMARK  181  A    between atoms: _468  and  _471
REMARK  182  A    between atoms: _474  and  _476
REMARK  183  A    between atoms: _476  and  _477
REMARK  184  A    between atoms: _479  and  _481
REMARK  185  A    between atoms: _481  and  _482
REMARK  186  A    between atoms: _485  and  _487
REMARK  187  A    between atoms: _487  and  _488
REMARK  188  A    between atoms: _487  and  _490
REMARK  189  A    between atoms: _490  and  _491
REMARK  190  A    between atoms: _494  and  _496
REMARK  191  A    between atoms: _496  and  _497
REMARK  192  A    between atoms: _496  and  _499
REMARK  193  A    between atoms: _499  and  _500
REMARK  194  A    between atoms: _506  and  _508
REMARK  195  A    between atoms: _508  and  _509
REMARK  196  A    between atoms: _508  and  _511
REMARK  197  A    between atoms: _511  and  _512
REMARK  198  A    between atoms: _514  and  _516
REMARK  199  A    between atoms: _516  and  _517
REMARK  200  A    between atoms: _516  and  _519
REMARK  201  A    between atoms: _521  and  _523
REMARK  202  A    between atoms: _523  and  _524
REMARK  203  A    between atoms: _523  and  _526
REMARK  204  A    between atoms: _526  and  _527
REMARK  205  A    between atoms: _527  and  _528
REMARK  206  A    between atoms: _528  and  _529
REMARK  207  A    between atoms: _538  and  _540
REMARK  208  A    between atoms: _540  and  _541
REMARK  209  A    between atoms: _540  and  _543
REMARK  210  A    between atoms: _545  and  _547
REMARK  211  A    between atoms: _547  and  _548
REMARK  212  A    between atoms: _547  and  _550
REMARK  213  A    between atoms: _550  and  _551
REMARK  214  A    between atoms: _556  and  _558
REMARK  215  A    between atoms: _558  and  _559
REMARK  216  A    between atoms: _558  and  _561
REMARK  217  A    between atoms: _561  and  _562
REMARK  218  A    between atoms: _565  and  _567
REMARK  219  A    between atoms: _567  and  _568
REMARK  220  A    between atoms: _567  and  _570
REMARK  221  A    between atoms: _570  and  _571
REMARK  222  A    between atoms: _571  and  _572
REMARK  223  A    between atoms: _577  and  _579
REMARK  224  A    between atoms: _579  and  _580
REMARK  225  A    between atoms: _579  and  _582
REMARK  226  A    between atoms: _582  and  _583
REMARK  227  A    between atoms: _586  and  _588
REMARK  228  A    between atoms: _588  and  _589
REMARK  229  A    between atoms: _588  and  _591
REMARK  230  A    between atoms: _591  and  _592
REMARK  231  A    between atoms: _597  and  _598
REMARK  232  A    between atoms: _600  and  _602
REMARK  233  A    between atoms: _602  and  _603
REMARK  234  A    between atoms: _602  and  _605
REMARK  235  A    between atoms: _605  and  _606
REMARK  236  A    between atoms: _608  and  _610
REMARK  237  A    between atoms: _610  and  _611
REMARK  238  A    between atoms: _610  and  _613
REMARK  239  A    between atoms: _613  and  _614
REMARK  240  A    between atoms: _620  and  _622
REMARK  241  A    between atoms: _622  and  _623
REMARK  242  A    between atoms: _622  and  _625
REMARK  243  A    between atoms: _625  and  _626
REMARK                            x       y       z     vdW  Elec       q    Type
REMARK                         _______ _______ _______ _____ _____    ______ ____
ROOT
ATOM      1  O   HOH     1      11.992  -7.369  24.817  0.00  0.00    +0.000 OA
ENDROOT
TORSDOF 0
REMARK  Name = ../refined-set-2016/1m7y/1m7y_pocket.pdb
REMARK  243 active torsions:
REMARK  status: ('A' for Active; 'I' for Inactive)
REMARK    1  A    between atoms: _1  and  _3
REMARK    2  A    between atoms: _3  and  _4
REMARK    3  A    between atoms: _3  and  _6
REMARK    4  A    between atoms: _6  and  _7
REMARK    5  A    between atoms: _12  and  _13
REMARK    6  A    between atoms: _15  and  _17
REMARK    7  A    between atoms: _17  and  _18
REMARK    8  A    between atoms: _17  and  _20
REMARK    9  A    between atoms: _20  and  _21
REMARK   10  A    between atoms: _27  and  _29
REMARK   11  A    between atoms: _29  and  _30
REMARK   12  A    between atoms: _29  and  _32
REMARK   13  A    between atoms: _32  and  _33
REMARK   14  A    between atoms: _43  and  _45
REMARK   15  A    between atoms: _45  and  _46
REMARK   16  A    between atoms: _45  and  _48
REMARK   17  A    between atoms: _48  and  _49
REMARK   18  A    between atoms: _49  and  _50
REMARK   19  A    between atoms: _55  and  _57
REMARK   20  A    between atoms: _57  and  _58
REMARK   21  A    between atoms: _60  and  _62
REMARK   22  A    between atoms: _62  and  _63
REMARK   23  A    between atoms: _62  and  _65
REMARK   24  A    between atoms: _65  and  _66
REMARK   25  A    between atoms: _69  and  _71
REMARK   26  A    between atoms: _71  and  _72
REMARK   27  A    between atoms: _75  and  _77
REMARK   28  A    between atoms: _77  and  _78
REMARK   29  A    between atoms: _77  and  _80
REMARK   30  A    between atoms: _80  and  _81
REMARK   31  A    between atoms: _81  and  _82
REMARK   32  A    between atoms: _85  and  _87
REMARK   33  A    between atoms: _87  and  _88
REMARK   34  A    between atoms: _87  and  _90
REMARK   35  A    between atoms: _90  and  _91
REMARK   36  A    between atoms: _96  and  _98
REMARK   37  A    between atoms: _98  and  _99
REMARK   38  A    between atoms: _98  and  _101
REMARK   39  A    between atoms: _101  and  _102
REMARK   40  A    between atoms: _105  and  _107
REMARK   41  A    between atoms: _107  and  _108
REMARK   42  A    between atoms: _111  and  _113
REMARK   43  A    between atoms: _113  and  _114
REMARK   44  A    between atoms: _116  and  _118
REMARK   45  A    between atoms: _118  and  _119
REMARK   46  A    between atoms: _122  and  _124
REMARK   47  A    between atoms: _124  and  _125
REMARK   48  A    between atoms: _124  and  _127
REMARK   49  A    between atoms: _127  and  _128
REMARK   50  A    between atoms: _131  and  _133
REMARK   51  A    between atoms: _133  and  _134
REMARK   52  A    between atoms: _133  and  _136
REMARK   53  A    between atoms: _136  and  _137
REMARK   54  A    between atoms: _139  and  _141
REMARK   55  A    between atoms: _141  and  _142
REMARK   56  A    between atoms: _145  and  _147
REMARK   57  A    between atoms: _147  and  _148
REMARK   58  A    between atoms: _147  and  _150
REMARK   59  A    between atoms: _150  and  _151
REMARK   60  A    between atoms: _156  and  _158
REMARK   61  A    between atoms: _158  and  _159
REMARK   62  A    between atoms: _158  and  _161
REMARK   63  A    between atoms: _161  and  _162
REMARK   64  A    between atoms: _162  and  _163
REMARK   65  A    between atoms: _166  and  _168
REMARK   66  A    between atoms: _168  and  _169
REMARK   67  A    between atoms: _168  and  _171
REMARK   68  A    between atoms: _171  and  _172
REMARK   69  A    between atoms: _177  and  _178
REMARK   70  A    between atoms: _180  and  _182
REMARK   71  A    between atoms: _182  and  _183
REMARK   72  A    between atoms: _182  and  _185
REMARK   73  A    between atoms: _185  and  _186
REMARK   74  A    between atoms: _191  and  _192
REMARK   75  A    between atoms: _195  and  _196
REMARK   76  A    between atoms: _201  and  _203
REMARK   77  A    between atoms: _203  and  _204
REMARK   78  A    between atoms: _206  and  _208
REMARK   79  A    between atoms: _208  and  _209
REMARK   80  A    between atoms: _208  and  _211
REMARK   81  A    between atoms: _211  and  _212
REMARK   82  A    between atoms: _218  and  _220
REMARK   83  A    between atoms: _220  and  _221
REMARK   84  A    between atoms: _220  and  _223
REMARK   85  A    between atoms: _223  and  _224
REMARK   86  A    between atoms: _224  and  _225
REMARK   87  A    between atoms: _225  and  _226
REMARK   88  A    between atoms: _235  and  _237
REMARK   89  A    between atoms: _237  and  _238
REMARK   90  A    between atoms: _237  and  _240
REMARK   91  A    between atoms: _240  and  _241
REMARK   92  A    between atoms: _244  and  _246
REMARK   93  A    between atoms: _246  and  _247
REMARK   94  A    between atoms: _246  and  _249
REMARK   95  A    between atoms: _249  and  _250
REMARK   96  A    between atoms: _253  and  _255
REMARK   97  A    between atoms: _255  and  _256
REMARK   98  A    between atoms: _255  and  _258
REMARK   99  A    between atoms: _261  and  _263
REMARK  100  A    between atoms: _263  and  _264
REMARK  101  A    between atoms: _263  and  _266
REMARK  102  A    between atoms: _266  and  _267
REMARK  103  A    between atoms: _270  and  _272
REMARK  104  A    between atoms: _272  and  _273
REMARK  105  A    between atoms: _272  and  _275
REMARK  106  A    between atoms: _275  and  _276
REMARK  107  A    between atoms: _282  and  _283
REMARK  108  A    between atoms: _288  and  _290
REMARK  109  A    between atoms: _290  and  _291
REMARK  110  A    between atoms: _290  and  _293
REMARK  111  A    between atoms: _293  and  _294
REMARK  112  A    between atoms: _296  and  _298
REMARK  113  A    between atoms: _298  and  _299
REMARK  114  A    between atoms: _298  and  _301
REMARK  115  A    between atoms: _301  and  _302
REMARK  116  A    between atoms: _308  and  _309
REMARK  117  A    between atoms: _314  and  _316
REMARK  118  A    between atoms: _316  and  _317
REMARK  119  A    between atoms: _316  and  _319
REMARK  120  A    between atoms: _319  and  _320
REMARK  121  A    between atoms: _323  and  _325
REMARK  122  A    between atoms: _325  and  _326
REMARK  123  A    between atoms: _325  and  _328
REMARK  124  A    between atoms: _328  and  _329
REMARK  125  A    between atoms: _329  and  _330
REMARK  126  A    between atoms: _333  and  _335
REMARK  127  A    between atoms: _335  and  _336
REMARK  128  A    between atoms: _335  and  _338
REMARK  129  A    between atoms: _338  and  _339
REMARK  130  A    between atoms: _342  and  _344
REMARK  131  A    between atoms: _344  and  _345
REMARK  132  A    between atoms: _344  and  _347
REMARK  133  A    between atoms: _347  and  _348
REMARK  134  A    between atoms: _353  and  _354
REMARK  135  A    between atoms: _356  and  _358
REMARK  136  A    between atoms: _358  and  _359
REMARK  137  A    between atoms: _358  and  _361
REMARK  138  A    between atoms: _364  and  _366
REMARK  139  A    between atoms: _366  and  _367
REMARK  140  A    between atoms: _366  and  _369
REMARK  141  A    between atoms: _369  and  _370
REMARK  142  A    between atoms: _375  and  _376
REMARK  143  A    between atoms: _378  and  _380
REMARK  144  A    between atoms: _380  and  _381
REMARK  145  A    between atoms: _380  and  _383
REMARK  146  A    between atoms: _383  and  _384
REMARK  147  A    between atoms: _386  and  _388
REMARK  148  A    between atoms: _388  and  _389
REMARK  149  A    between atoms: _388  and  _391
REMARK  150  A    between atoms: _391  and  _392
REMARK  151  A    between atoms: _395  and  _397
REMARK  152  A    between atoms: _397  and  _398
REMARK  153  A    between atoms: _397  and  _400
REMARK  154  A    between atoms: _400  and  _401
REMARK  155  A    between atoms: _403  and  _405
REMARK  156  A    between atoms: _405  and  _406
REMARK  157  A    between atoms: _405  and  _408
REMARK  158  A    between atoms: _408  and  _409
REMARK  159  A    between atoms: _409  and  _410
REMARK  160  A    between atoms: _410  and  _411
REMARK  161  A    between atoms: _411  and  _412
REMARK  162  A    between atoms: _416  and  _418
REMARK  163  A    between atoms: _418  and  _419
REMARK  164  A    between atoms: _418  and  _421
REMARK  165  A    between atoms: _421  and  _422
REMARK  166  A    between atoms: _426  and  _427
REMARK  167  A    between atoms: _432  and  _434
REMARK  168  A    between atoms: _434  and  _435
REMARK  169  A    between atoms: _437  and  _439
REMARK  170  A    between atoms: _439  and  _440
REMARK  171  A    between atoms: _439  and  _442
REMARK  172  A    between atoms: _442  and  _443
REMARK  173  A    between atoms: _449  and  _451
REMARK  174  A    between atoms: _451  and  _452
REMARK  175  A    between atoms: _451  and  _454
REMARK  176  A    between atoms: _454  and  _455
REMARK  177  A    between atoms: _455  and  _456
REMARK  178  A    between atoms: _456  and  _457
REMARK  179  A    between atoms: _466  and  _468
REMARK  180  A    between atoms: _468  and  _469
REMARK  181  A    between atoms: _468  and  _471
REMARK  182  A    between atoms: _474  and  _476
REMARK  183  A    between atoms: _476  and  _477
REMARK  184  A    between atoms: _479  and  _481
REMARK  185  A    between atoms: _481  and  _482
REMARK  186  A    between atoms: _485  and  _487
REMARK  187  A    between atoms: _487  and  _488
REMARK  188  A    between atoms: _487  and  _490
REMARK  189  A    between atoms: _490  and  _491
REMARK  190  A    between atoms: _494  and  _496
REMARK  191  A    between atoms: _496  and  _497
REMARK  192  A    between atoms: _496  and  _499
REMARK  193  A    between atoms: _499  and  _500
REMARK  194  A    between atoms: _506  and  _508
REMARK  195  A    between atoms: _508  and  _509
REMARK  196  A    between atoms: _508  and  _511
REMARK  197  A    between atoms: _511  and  _512
REMARK  198  A    between atoms: _514  and  _516
REMARK  199  A    between atoms: _516  and  _517
REMARK  200  A    between atoms: _516  and  _519
REMARK  201  A    between atoms: _521  and  _523
REMARK  202  A    between atoms: _523  and  _524
REMARK  203  A    between atoms: _523  and  _526
REMARK  204  A    between atoms: _526  and  _527
REMARK  205  A    between atoms: _527  and  _528
REMARK  206  A    between atoms: _528  and  _529
REMARK  207  A    between atoms: _538  and  _540
REMARK  208  A    between atoms: _540  and  _541
REMARK  209  A    between atoms: _540  and  _543
REMARK  210  A    between atoms: _545  and  _547
REMARK  211  A    between atoms: _547  and  _548
REMARK  212  A    between atoms: _547  and  _550
REMARK  213  A    between atoms: _550  and  _551
REMARK  214  A    between atoms: _556  and  _558
REMARK  215  A    between atoms: _558  and  _559
REMARK  216  A    between atoms: _558  and  _561
REMARK  217  A    between atoms: _561  and  _562
REMARK  218  A    between atoms: _565  and  _567
REMARK  219  A    between atoms: _567  and  _568
REMARK  220  A    between atoms: _567  and  _570
REMARK  221  A    between atoms: _570  and  _571
REMARK  222  A    between atoms: _571  and  _572
REMARK  223  A    between atoms: _577  and  _579
REMARK  224  A    between atoms: _579  and  _580
REMARK  225  A    between atoms: _579  and  _582
REMARK  226  A    between atoms: _582  and  _583
REMARK  227  A    between atoms: _586  and  _588
REMARK  228  A    between atoms: _588  and  _589
REMARK  229  A    between atoms: _588  and  _591
REMARK  230  A    between atoms: _591  and  _592
REMARK  231  A    between atoms: _597  and  _598
REMARK  232  A    between atoms: _600  and  _602
REMARK  233  A    between atoms: _602  and  _603
REMARK  234  A    between atoms: _602  and  _605
REMARK  235  A    between atoms: _605  and  _606
REMARK  236  A    between atoms: _608  and  _610
REMARK  237  A    between atoms: _610  and  _611
REMARK  238  A    between atoms: _610  and  _613
REMARK  239  A    between atoms: _613  and  _614
REMARK  240  A    between atoms: _620  and  _622
REMARK  241  A    between atoms: _622  and  _623
REMARK  242  A    between atoms: _622  and  _625
REMARK  243  A    between atoms: _625  and  _626
REMARK                            x       y       z     vdW  Elec       q    Type
REMARK                         _______ _______ _______ _____ _____    ______ ____
ROOT
ATOM      1  O   HOH     1      10.375  -5.807  29.235  0.00  0.00    +0.000 OA
ENDROOT
TORSDOF 0
REMARK  Name = ../refined-set-2016/1m7y/1m7y_pocket.pdb
REMARK  243 active torsions:
REMARK  status: ('A' for Active; 'I' for Inactive)
REMARK    1  A    between atoms: _1  and  _3
REMARK    2  A    between atoms: _3  and  _4
REMARK    3  A    between atoms: _3  and  _6
REMARK    4  A    between atoms: _6  and  _7
REMARK    5  A    between atoms: _12  and  _13
REMARK    6  A    between atoms: _15  and  _17
REMARK    7  A    between atoms: _17  and  _18
REMARK    8  A    between atoms: _17  and  _20
REMARK    9  A    between atoms: _20  and  _21
REMARK   10  A    between atoms: _27  and  _29
REMARK   11  A    between atoms: _29  and  _30
REMARK   12  A    between atoms: _29  and  _32
REMARK   13  A    between atoms: _32  and  _33
REMARK   14  A    between atoms: _43  and  _45
REMARK   15  A    between atoms: _45  and  _46
REMARK   16  A    between atoms: _45  and  _48
REMARK   17  A    between atoms: _48  and  _49
REMARK   18  A    between atoms: _49  and  _50
REMARK   19  A    between atoms: _55  and  _57
REMARK   20  A    between atoms: _57  and  _58
REMARK   21  A    between atoms: _60  and  _62
REMARK   22  A    between atoms: _62  and  _63
REMARK   23  A    between atoms: _62  and  _65
REMARK   24  A    between atoms: _65  and  _66
REMARK   25  A    between atoms: _69  and  _71
REMARK   26  A    between atoms: _71  and  _72
REMARK   27  A    between atoms: _75  and  _77
REMARK   28  A    between atoms: _77  and  _78
REMARK   29  A    between atoms: _77  and  _80
REMARK   30  A    between atoms: _80  and  _81
REMARK   31  A    between atoms: _81  and  _82
REMARK   32  A    between atoms: _85  and  _87
REMARK   33  A    between atoms: _87  and  _88
REMARK   34  A    between atoms: _87  and  _90
REMARK   35  A    between atoms: _90  and  _91
REMARK   36  A    between atoms: _96  and  _98
REMARK   37  A    between atoms: _98  and  _99
REMARK   38  A    between atoms: _98  and  _101
REMARK   39  A    between atoms: _101  and  _102
REMARK   40  A    between atoms: _105  and  _107
REMARK   41  A    between atoms: _107  and  _108
REMARK   42  A    between atoms: _111  and  _113
REMARK   43  A    between atoms: _113  and  _114
REMARK   44  A    between atoms: _116  and  _118
REMARK   45  A    between atoms: _118  and  _119
REMARK   46  A    between atoms: _122  and  _124
REMARK   47  A    between atoms: _124  and  _125
REMARK   48  A    between atoms: _124  and  _127
REMARK   49  A    between atoms: _127  and  _128
REMARK   50  A    between atoms: _131  and  _133
REMARK   51  A    between atoms: _133  and  _134
REMARK   52  A    between atoms: _133  and  _136
REMARK   53  A    between atoms: _136  and  _137
REMARK   54  A    between atoms: _139  and  _141
REMARK   55  A    between atoms: _141  and  _142
REMARK   56  A    between atoms: _145  and  _147
REMARK   57  A    between atoms: _147  and  _148
REMARK   58  A    between atoms: _147  and  _150
REMARK   59  A    between atoms: _150  and  _151
REMARK   60  A    between atoms: _156  and  _158
REMARK   61  A    between atoms: _158  and  _159
REMARK   62  A    between atoms: _158  and  _161
REMARK   63  A    between atoms: _161  and  _162
REMARK   64  A    between atoms: _162  and  _163
REMARK   65  A    between atoms: _166  and  _168
REMARK   66  A    between atoms: _168  and  _169
REMARK   67  A    between atoms: _168  and  _171
REMARK   68  A    between atoms: _171  and  _172
REMARK   69  A    between atoms: _177  and  _178
REMARK   70  A    between atoms: _180  and  _182
REMARK   71  A    between atoms: _182  and  _183
REMARK   72  A    between atoms: _182  and  _185
REMARK   73  A    between atoms: _185  and  _186
REMARK   74  A    between atoms: _191  and  _192
REMARK   75  A    between atoms: _195  and  _196
REMARK   76  A    between atoms: _201  and  _203
REMARK   77  A    between atoms: _203  and  _204
REMARK   78  A    between atoms: _206  and  _208
REMARK   79  A    between atoms: _208  and  _209
REMARK   80  A    between atoms: _208  and  _211
REMARK   81  A    between atoms: _211  and  _212
REMARK   82  A    between atoms: _218  and  _220
REMARK   83  A    between atoms: _220  and  _221
REMARK   84  A    between atoms: _220  and  _223
REMARK   85  A    between atoms: _223  and  _224
REMARK   86  A    between atoms: _224  and  _225
REMARK   87  A    between atoms: _225  and  _226
REMARK   88  A    between atoms: _235  and  _237
REMARK   89  A    between atoms: _237  and  _238
REMARK   90  A    between atoms: _237  and  _240
REMARK   91  A    between atoms: _240  and  _241
REMARK   92  A    between atoms: _244  and  _246
REMARK   93  A    between atoms: _246  and  _247
REMARK   94  A    between atoms: _246  and  _249
REMARK   95  A    between atoms: _249  and  _250
REMARK   96  A    between atoms: _253  and  _255
REMARK   97  A    between atoms: _255  and  _256
REMARK   98  A    between atoms: _255  and  _258
REMARK   99  A    between atoms: _261  and  _263
REMARK  100  A    between atoms: _263  and  _264
REMARK  101  A    between atoms: _263  and  _266
REMARK  102  A    between atoms: _266  and  _267
REMARK  103  A    between atoms: _270  and  _272
REMARK  104  A    between atoms: _272  and  _273
REMARK  105  A    between atoms: _272  and  _275
REMARK  106  A    between atoms: _275  and  _276
REMARK  107  A    between atoms: _282  and  _283
REMARK  108  A    between atoms: _288  and  _290
REMARK  109  A    between atoms: _290  and  _291
REMARK  110  A    between atoms: _290  and  _293
REMARK  111  A    between atoms: _293  and  _294
REMARK  112  A    between atoms: _296  and  _298
REMARK  113  A    between atoms: _298  and  _299
REMARK  114  A    between atoms: _298  and  _301
REMARK  115  A    between atoms: _301  and  _302
REMARK  116  A    between atoms: _308  and  _309
REMARK  117  A    between atoms: _314  and  _316
REMARK  118  A    between atoms: _316  and  _317
REMARK  119  A    between atoms: _316  and  _319
REMARK  120  A    between atoms: _319  and  _320
REMARK  121  A    between atoms: _323  and  _325
REMARK  122  A    between atoms: _325  and  _326
REMARK  123  A    between atoms: _325  and  _328
REMARK  124  A    between atoms: _328  and  _329
REMARK  125  A    between atoms: _329  and  _330
REMARK  126  A    between atoms: _333  and  _335
REMARK  127  A    between atoms: _335  and  _336
REMARK  128  A    between atoms: _335  and  _338
REMARK  129  A    between atoms: _338  and  _339
REMARK  130  A    between atoms: _342  and  _344
REMARK  131  A    between atoms: _344  and  _345
REMARK  132  A    between atoms: _344  and  _347
REMARK  133  A    between atoms: _347  and  _348
REMARK  134  A    between atoms: _353  and  _354
REMARK  135  A    between atoms: _356  and  _358
REMARK  136  A    between atoms: _358  and  _359
REMARK  137  A    between atoms: _358  and  _361
REMARK  138  A    between atoms: _364  and  _366
REMARK  139  A    between atoms: _366  and  _367
REMARK  140  A    between atoms: _366  and  _369
REMARK  141  A    between atoms: _369  and  _370
REMARK  142  A    between atoms: _375  and  _376
REMARK  143  A    between atoms: _378  and  _380
REMARK  144  A    between atoms: _380  and  _381
REMARK  145  A    between atoms: _380  and  _383
REMARK  146  A    between atoms: _383  and  _384
REMARK  147  A    between atoms: _386  and  _388
REMARK  148  A    between atoms: _388  and  _389
REMARK  149  A    between atoms: _388  and  _391
REMARK  150  A    between atoms: _391  and  _392
REMARK  151  A    between atoms: _395  and  _397
REMARK  152  A    between atoms: _397  and  _398
REMARK  153  A    between atoms: _397  and  _400
REMARK  154  A    between atoms: _400  and  _401
REMARK  155  A    between atoms: _403  and  _405
REMARK  156  A    between atoms: _405  and  _406
REMARK  157  A    between atoms: _405  and  _408
REMARK  158  A    between atoms: _408  and  _409
REMARK  159  A    between atoms: _409  and  _410
REMARK  160  A    between atoms: _410  and  _411
REMARK  161  A    between atoms: _411  and  _412
REMARK  162  A    between atoms: _416  and  _418
REMARK  163  A    between atoms: _418  and  _419
REMARK  164  A    between atoms: _418  and  _421
REMARK  165  A    between atoms: _421  and  _422
REMARK  166  A    between atoms: _426  and  _427
REMARK  167  A    between atoms: _432  and  _434
REMARK  168  A    between atoms: _434  and  _435
REMARK  169  A    between atoms: _437  and  _439
REMARK  170  A    between atoms: _439  and  _440
REMARK  171  A    between atoms: _439  and  _442
REMARK  172  A    between atoms: _442  and  _443
REMARK  173  A    between atoms: _449  and  _451
REMARK  174  A    between atoms: _451  and  _452
REMARK  175  A    between atoms: _451  and  _454
REMARK  176  A    between atoms: _454  and  _455
REMARK  177  A    between atoms: _455  and  _456
REMARK  178  A    between atoms: _456  and  _457
REMARK  179  A    between atoms: _466  and  _468
REMARK  180  A    between atoms: _468  and  _469
REMARK  181  A    between atoms: _468  and  _471
REMARK  182  A    between atoms: _474  and  _476
REMARK  183  A    between atoms: _476  and  _477
REMARK  184  A    between atoms: _479  and  _481
REMARK  185  A    between atoms: _481  and  _482
REMARK  186  A    between atoms: _485  and  _487
REMARK  187  A    between atoms: _487  and  _488
REMARK  188  A    between atoms: _487  and  _490
REMARK  189  A    between atoms: _490  and  _491
REMARK  190  A    between atoms: _494  and  _496
REMARK  191  A    between atoms: _496  and  _497
REMARK  192  A    between atoms: _496  and  _499
REMARK  193  A    between atoms: _499  and  _500
REMARK  194  A    between atoms: _506  and  _508
REMARK  195  A    between atoms: _508  and  _509
REMARK  196  A    between atoms: _508  and  _511
REMARK  197  A    between atoms: _511  and  _512
REMARK  198  A    between atoms: _514  and  _516
REMARK  199  A    between atoms: _516  and  _517
REMARK  200  A    between atoms: _516  and  _519
REMARK  201  A    between atoms: _521  and  _523
REMARK  202  A    between atoms: _523  and  _524
REMARK  203  A    between atoms: _523  and  _526
REMARK  204  A    between atoms: _526  and  _527
REMARK  205  A    between atoms: _527  and  _528
REMARK  206  A    between atoms: _528  and  _529
REMARK  207  A    between atoms: _538  and  _540
REMARK  208  A    between atoms: _540  and  _541
REMARK  209  A    between atoms: _540  and  _543
REMARK  210  A    between atoms: _545  and  _547
REMARK  211  A    between atoms: _547  and  _548
REMARK  212  A    between atoms: _547  and  _550
REMARK  213  A    between atoms: _550  and  _551
REMARK  214  A    between atoms: _556  and  _558
REMARK  215  A    between atoms: _558  and  _559
REMARK  216  A    between atoms: _558  and  _561
REMARK  217  A    between atoms: _561  and  _562
REMARK  218  A    between atoms: _565  and  _567
REMARK  219  A    between atoms: _567  and  _568
REMARK  220  A    between atoms: _567  and  _570
REMARK  221  A    between atoms: _570  and  _571
REMARK  222  A    between atoms: _571  and  _572
REMARK  223  A    between atoms: _577  and  _579
REMARK  224  A    between atoms: _579  and  _580
REMARK  225  A    between atoms: _579  and  _582
REMARK  226  A    between atoms: _582  and  _583
REMARK  227  A    between atoms: _586  and  _588
REMARK  228  A    between atoms: _588  and  _589
REMARK  229  A    between atoms: _588  and  _591
REMARK  230  A    between atoms: _591  and  _592
REMARK  231  A    between atoms: _597  and  _598
REMARK  232  A    between atoms: _600  and  _602
REMARK  233  A    between atoms: _602  and  _603
REMARK  234  A    between atoms: _602  and  _605
REMARK  235  A    between atoms: _605  and  _606
REMARK  236  A    between atoms: _608  and  _610
REMARK  237  A    between atoms: _610  and  _611
REMARK  238  A    between atoms: _610  and  _613
REMARK  239  A    between atoms: _613  and  _614
REMARK  240  A    between atoms: _620  and  _622
REMARK  241  A    between atoms: _622  and  _623
REMARK  242  A    between atoms: _622  and  _625
REMARK  243  A    between atoms: _625  and  _626
REMARK                            x       y       z     vdW  Elec       q    Type
REMARK                         _______ _______ _______ _____ _____    ______ ____
ROOT
ATOM      1  O   HOH     1      12.976  -5.477  28.145  0.00  0.00    +0.000 OA
ENDROOT
TORSDOF 0
REMARK  Name = ../refined-set-2016/1m7y/1m7y_pocket.pdb
REMARK  243 active torsions:
REMARK  status: ('A' for Active; 'I' for Inactive)
REMARK    1  A    between atoms: _1  and  _3
REMARK    2  A    between atoms: _3  and  _4
REMARK    3  A    between atoms: _3  and  _6
REMARK    4  A    between atoms: _6  and  _7
REMARK    5  A    between atoms: _12  and  _13
REMARK    6  A    between atoms: _15  and  _17
REMARK    7  A    between atoms: _17  and  _18
REMARK    8  A    between atoms: _17  and  _20
REMARK    9  A    between atoms: _20  and  _21
REMARK   10  A    between atoms: _27  and  _29
REMARK   11  A    between atoms: _29  and  _30
REMARK   12  A    between atoms: _29  and  _32
REMARK   13  A    between atoms: _32  and  _33
REMARK   14  A    between atoms: _43  and  _45
REMARK   15  A    between atoms: _45  and  _46
REMARK   16  A    between atoms: _45  and  _48
REMARK   17  A    between atoms: _48  and  _49
REMARK   18  A    between atoms: _49  and  _50
REMARK   19  A    between atoms: _55  and  _57
REMARK   20  A    between atoms: _57  and  _58
REMARK   21  A    between atoms: _60  and  _62
REMARK   22  A    between atoms: _62  and  _63
REMARK   23  A    between atoms: _62  and  _65
REMARK   24  A    between atoms: _65  and  _66
REMARK   25  A    between atoms: _69  and  _71
REMARK   26  A    between atoms: _71  and  _72
REMARK   27  A    between atoms: _75  and  _77
REMARK   28  A    between atoms: _77  and  _78
REMARK   29  A    between atoms: _77  and  _80
REMARK   30  A    between atoms: _80  and  _81
REMARK   31  A    between atoms: _81  and  _82
REMARK   32  A    between atoms: _85  and  _87
REMARK   33  A    between atoms: _87  and  _88
REMARK   34  A    between atoms: _87  and  _90
REMARK   35  A    between atoms: _90  and  _91
REMARK   36  A    between atoms: _96  and  _98
REMARK   37  A    between atoms: _98  and  _99
REMARK   38  A    between atoms: _98  and  _101
REMARK   39  A    between atoms: _101  and  _102
REMARK   40  A    between atoms: _105  and  _107
REMARK   41  A    between atoms: _107  and  _108
REMARK   42  A    between atoms: _111  and  _113
REMARK   43  A    between atoms: _113  and  _114
REMARK   44  A    between atoms: _116  and  _118
REMARK   45  A    between atoms: _118  and  _119
REMARK   46  A    between atoms: _122  and  _124
REMARK   47  A    between atoms: _124  and  _125
REMARK   48  A    between atoms: _124  and  _127
REMARK   49  A    between atoms: _127  and  _128
REMARK   50  A    between atoms: _131  and  _133
REMARK   51  A    between atoms: _133  and  _134
REMARK   52  A    between atoms: _133  and  _136
REMARK   53  A    between atoms: _136  and  _137
REMARK   54  A    between atoms: _139  and  _141
REMARK   55  A    between atoms: _141  and  _142
REMARK   56  A    between atoms: _145  and  _147
REMARK   57  A    between atoms: _147  and  _148
REMARK   58  A    between atoms: _147  and  _150
REMARK   59  A    between atoms: _150  and  _151
REMARK   60  A    between atoms: _156  and  _158
REMARK   61  A    between atoms: _158  and  _159
REMARK   62  A    between atoms: _158  and  _161
REMARK   63  A    between atoms: _161  and  _162
REMARK   64  A    between atoms: _162  and  _163
REMARK   65  A    between atoms: _166  and  _168
REMARK   66  A    between atoms: _168  and  _169
REMARK   67  A    between atoms: _168  and  _171
REMARK   68  A    between atoms: _171  and  _172
REMARK   69  A    between atoms: _177  and  _178
REMARK   70  A    between atoms: _180  and  _182
REMARK   71  A    between atoms: _182  and  _183
REMARK   72  A    between atoms: _182  and  _185
REMARK   73  A    between atoms: _185  and  _186
REMARK   74  A    between atoms: _191  and  _192
REMARK   75  A    between atoms: _195  and  _196
REMARK   76  A    between atoms: _201  and  _203
REMARK   77  A    between atoms: _203  and  _204
REMARK   78  A    between atoms: _206  and  _208
REMARK   79  A    between atoms: _208  and  _209
REMARK   80  A    between atoms: _208  and  _211
REMARK   81  A    between atoms: _211  and  _212
REMARK   82  A    between atoms: _218  and  _220
REMARK   83  A    between atoms: _220  and  _221
REMARK   84  A    between atoms: _220  and  _223
REMARK   85  A    between atoms: _223  and  _224
REMARK   86  A    between atoms: _224  and  _225
REMARK   87  A    between atoms: _225  and  _226
REMARK   88  A    between atoms: _235  and  _237
REMARK   89  A    between atoms: _237  and  _238
REMARK   90  A    between atoms: _237  and  _240
REMARK   91  A    between atoms: _240  and  _241
REMARK   92  A    between atoms: _244  and  _246
REMARK   93  A    between atoms: _246  and  _247
REMARK   94  A    between atoms: _246  and  _249
REMARK   95  A    between atoms: _249  and  _250
REMARK   96  A    between atoms: _253  and  _255
REMARK   97  A    between atoms: _255  and  _256
REMARK   98  A    between atoms: _255  and  _258
REMARK   99  A    between atoms: _261  and  _263
REMARK  100  A    between atoms: _263  and  _264
REMARK  101  A    between atoms: _263  and  _266
REMARK  102  A    between atoms: _266  and  _267
REMARK  103  A    between atoms: _270  and  _272
REMARK  104  A    between atoms: _272  and  _273
REMARK  105  A    between atoms: _272  and  _275
REMARK  106  A    between atoms: _275  and  _276
REMARK  107  A    between atoms: _282  and  _283
REMARK  108  A    between atoms: _288  and  _290
REMARK  109  A    between atoms: _290  and  _291
REMARK  110  A    between atoms: _290  and  _293
REMARK  111  A    between atoms: _293  and  _294
REMARK  112  A    between atoms: _296  and  _298
REMARK  113  A    between atoms: _298  and  _299
REMARK  114  A    between atoms: _298  and  _301
REMARK  115  A    between atoms: _301  and  _302
REMARK  116  A    between atoms: _308  and  _309
REMARK  117  A    between atoms: _314  and  _316
REMARK  118  A    between atoms: _316  and  _317
REMARK  119  A    between atoms: _316  and  _319
REMARK  120  A    between atoms: _319  and  _320
REMARK  121  A    between atoms: _323  and  _325
REMARK  122  A    between atoms: _325  and  _326
REMARK  123  A    between atoms: _325  and  _328
REMARK  124  A    between atoms: _328  and  _329
REMARK  125  A    between atoms: _329  and  _330
REMARK  126  A    between atoms: _333  and  _335
REMARK  127  A    between atoms: _335  and  _336
REMARK  128  A    between atoms: _335  and  _338
REMARK  129  A    between atoms: _338  and  _339
REMARK  130  A    between atoms: _342  and  _344
REMARK  131  A    between atoms: _344  and  _345
REMARK  132  A    between atoms: _344  and  _347
REMARK  133  A    between atoms: _347  and  _348
REMARK  134  A    between atoms: _353  and  _354
REMARK  135  A    between atoms: _356  and  _358
REMARK  136  A    between atoms: _358  and  _359
REMARK  137  A    between atoms: _358  and  _361
REMARK  138  A    between atoms: _364  and  _366
REMARK  139  A    between atoms: _366  and  _367
REMARK  140  A    between atoms: _366  and  _369
REMARK  141  A    between atoms: _369  and  _370
REMARK  142  A    between atoms: _375  and  _376
REMARK  143  A    between atoms: _378  and  _380
REMARK  144  A    between atoms: _380  and  _381
REMARK  145  A    between atoms: _380  and  _383
REMARK  146  A    between atoms: _383  and  _384
REMARK  147  A    between atoms: _386  and  _388
REMARK  148  A    between atoms: _388  and  _389
REMARK  149  A    between atoms: _388  and  _391
REMARK  150  A    between atoms: _391  and  _392
REMARK  151  A    between atoms: _395  and  _397
REMARK  152  A    between atoms: _397  and  _398
REMARK  153  A    between atoms: _397  and  _400
REMARK  154  A    between atoms: _400  and  _401
REMARK  155  A    between atoms: _403  and  _405
REMARK  156  A    between atoms: _405  and  _406
REMARK  157  A    between atoms: _405  and  _408
REMARK  158  A    between atoms: _408  and  _409
REMARK  159  A    between atoms: _409  and  _410
REMARK  160  A    between atoms: _410  and  _411
REMARK  161  A    between atoms: _411  and  _412
REMARK  162  A    between atoms: _416  and  _418
REMARK  163  A    between atoms: _418  and  _419
REMARK  164  A    between atoms: _418  and  _421
REMARK  165  A    between atoms: _421  and  _422
REMARK  166  A    between atoms: _426  and  _427
REMARK  167  A    between atoms: _432  and  _434
REMARK  168  A    between atoms: _434  and  _435
REMARK  169  A    between atoms: _437  and  _439
REMARK  170  A    between atoms: _439  and  _440
REMARK  171  A    between atoms: _439  and  _442
REMARK  172  A    between atoms: _442  and  _443
REMARK  173  A    between atoms: _449  and  _451
REMARK  174  A    between atoms: _451  and  _452
REMARK  175  A    between atoms: _451  and  _454
REMARK  176  A    between atoms: _454  and  _455
REMARK  177  A    between atoms: _455  and  _456
REMARK  178  A    between atoms: _456  and  _457
REMARK  179  A    between atoms: _466  and  _468
REMARK  180  A    between atoms: _468  and  _469
REMARK  181  A    between atoms: _468  and  _471
REMARK  182  A    between atoms: _474  and  _476
REMARK  183  A    between atoms: _476  and  _477
REMARK  184  A    between atoms: _479  and  _481
REMARK  185  A    between atoms: _481  and  _482
REMARK  186  A    between atoms: _485  and  _487
REMARK  187  A    between atoms: _487  and  _488
REMARK  188  A    between atoms: _487  and  _490
REMARK  189  A    between atoms: _490  and  _491
REMARK  190  A    between atoms: _494  and  _496
REMARK  191  A    between atoms: _496  and  _497
REMARK  192  A    between atoms: _496  and  _499
REMARK  193  A    between atoms: _499  and  _500
REMARK  194  A    between atoms: _506  and  _508
REMARK  195  A    between atoms: _508  and  _509
REMARK  196  A    between atoms: _508  and  _511
REMARK  197  A    between atoms: _511  and  _512
REMARK  198  A    between atoms: _514  and  _516
REMARK  199  A    between atoms: _516  and  _517
REMARK  200  A    between atoms: _516  and  _519
REMARK  201  A    between atoms: _521  and  _523
REMARK  202  A    between atoms: _523  and  _524
REMARK  203  A    between atoms: _523  and  _526
REMARK  204  A    between atoms: _526  and  _527
REMARK  205  A    between atoms: _527  and  _528
REMARK  206  A    between atoms: _528  and  _529
REMARK  207  A    between atoms: _538  and  _540
REMARK  208  A    between atoms: _540  and  _541
REMARK  209  A    between atoms: _540  and  _543
REMARK  210  A    between atoms: _545  and  _547
REMARK  211  A    between atoms: _547  and  _548
REMARK  212  A    between atoms: _547  and  _550
REMARK  213  A    between atoms: _550  and  _551
REMARK  214  A    between atoms: _556  and  _558
REMARK  215  A    between atoms: _558  and  _559
REMARK  216  A    between atoms: _558  and  _561
REMARK  217  A    between atoms: _561  and  _562
REMARK  218  A    between atoms: _565  and  _567
REMARK  219  A    between atoms: _567  and  _568
REMARK  220  A    between atoms: _567  and  _570
REMARK  221  A    between atoms: _570  and  _571
REMARK  222  A    between atoms: _571  and  _572
REMARK  223  A    between atoms: _577  and  _579
REMARK  224  A    between atoms: _579  and  _580
REMARK  225  A    between atoms: _579  and  _582
REMARK  226  A    between atoms: _582  and  _583
REMARK  227  A    between atoms: _586  and  _588
REMARK  228  A    between atoms: _588  and  _589
REMARK  229  A    between atoms: _588  and  _591
REMARK  230  A    between atoms: _591  and  _592
REMARK  231  A    between atoms: _597  and  _598
REMARK  232  A    between atoms: _600  and  _602
REMARK  233  A    between atoms: _602  and  _603
REMARK  234  A    between atoms: _602  and  _605
REMARK  235  A    between atoms: _605  and  _606
REMARK  236  A    between atoms: _608  and  _610
REMARK  237  A    between atoms: _610  and  _611
REMARK  238  A    between atoms: _610  and  _613
REMARK  239  A    between atoms: _613  and  _614
REMARK  240  A    between atoms: _620  and  _622
REMARK  241  A    between atoms: _622  and  _623
REMARK  242  A    between atoms: _622  and  _625
REMARK  243  A    between atoms: _625  and  _626
REMARK                            x       y       z     vdW  Elec       q    Type
REMARK                         _______ _______ _______ _____ _____    ______ ____
ROOT
ATOM      1  O   HOH     1      26.305  -0.743  29.711  0.00  0.00    +0.000 OA
ENDROOT
TORSDOF 0
REMARK  Name = ../refined-set-2016/1m7y/1m7y_pocket.pdb
REMARK  243 active torsions:
REMARK  status: ('A' for Active; 'I' for Inactive)
REMARK    1  A    between atoms: _1  and  _3
REMARK    2  A    between atoms: _3  and  _4
REMARK    3  A    between atoms: _3  and  _6
REMARK    4  A    between atoms: _6  and  _7
REMARK    5  A    between atoms: _12  and  _13
REMARK    6  A    between atoms: _15  and  _17
REMARK    7  A    between atoms: _17  and  _18
REMARK    8  A    between atoms: _17  and  _20
REMARK    9  A    between atoms: _20  and  _21
REMARK   10  A    between atoms: _27  and  _29
REMARK   11  A    between atoms: _29  and  _30
REMARK   12  A    between atoms: _29  and  _32
REMARK   13  A    between atoms: _32  and  _33
REMARK   14  A    between atoms: _43  and  _45
REMARK   15  A    between atoms: _45  and  _46
REMARK   16  A    between atoms: _45  and  _48
REMARK   17  A    between atoms: _48  and  _49
REMARK   18  A    between atoms: _49  and  _50
REMARK   19  A    between atoms: _55  and  _57
REMARK   20  A    between atoms: _57  and  _58
REMARK   21  A    between atoms: _60  and  _62
REMARK   22  A    between atoms: _62  and  _63
REMARK   23  A    between atoms: _62  and  _65
REMARK   24  A    between atoms: _65  and  _66
REMARK   25  A    between atoms: _69  and  _71
REMARK   26  A    between atoms: _71  and  _72
REMARK   27  A    between atoms: _75  and  _77
REMARK   28  A    between atoms: _77  and  _78
REMARK   29  A    between atoms: _77  and  _80
REMARK   30  A    between atoms: _80  and  _81
REMARK   31  A    between atoms: _81  and  _82
REMARK   32  A    between atoms: _85  and  _87
REMARK   33  A    between atoms: _87  and  _88
REMARK   34  A    between atoms: _87  and  _90
REMARK   35  A    between atoms: _90  and  _91
REMARK   36  A    between atoms: _96  and  _98
REMARK   37  A    between atoms: _98  and  _99
REMARK   38  A    between atoms: _98  and  _101
REMARK   39  A    between atoms: _101  and  _102
REMARK   40  A    between atoms: _105  and  _107
REMARK   41  A    between atoms: _107  and  _108
REMARK   42  A    between atoms: _111  and  _113
REMARK   43  A    between atoms: _113  and  _114
REMARK   44  A    between atoms: _116  and  _118
REMARK   45  A    between atoms: _118  and  _119
REMARK   46  A    between atoms: _122  and  _124
REMARK   47  A    between atoms: _124  and  _125
REMARK   48  A    between atoms: _124  and  _127
REMARK   49  A    between atoms: _127  and  _128
REMARK   50  A    between atoms: _131  and  _133
REMARK   51  A    between atoms: _133  and  _134
REMARK   52  A    between atoms: _133  and  _136
REMARK   53  A    between atoms: _136  and  _137
REMARK   54  A    between atoms: _139  and  _141
REMARK   55  A    between atoms: _141  and  _142
REMARK   56  A    between atoms: _145  and  _147
REMARK   57  A    between atoms: _147  and  _148
REMARK   58  A    between atoms: _147  and  _150
REMARK   59  A    between atoms: _150  and  _151
REMARK   60  A    between atoms: _156  and  _158
REMARK   61  A    between atoms: _158  and  _159
REMARK   62  A    between atoms: _158  and  _161
REMARK   63  A    between atoms: _161  and  _162
REMARK   64  A    between atoms: _162  and  _163
REMARK   65  A    between atoms: _166  and  _168
REMARK   66  A    between atoms: _168  and  _169
REMARK   67  A    between atoms: _168  and  _171
REMARK   68  A    between atoms: _171  and  _172
REMARK   69  A    between atoms: _177  and  _178
REMARK   70  A    between atoms: _180  and  _182
REMARK   71  A    between atoms: _182  and  _183
REMARK   72  A    between atoms: _182  and  _185
REMARK   73  A    between atoms: _185  and  _186
REMARK   74  A    between atoms: _191  and  _192
REMARK   75  A    between atoms: _195  and  _196
REMARK   76  A    between atoms: _201  and  _203
REMARK   77  A    between atoms: _203  and  _204
REMARK   78  A    between atoms: _206  and  _208
REMARK   79  A    between atoms: _208  and  _209
REMARK   80  A    between atoms: _208  and  _211
REMARK   81  A    between atoms: _211  and  _212
REMARK   82  A    between atoms: _218  and  _220
REMARK   83  A    between atoms: _220  and  _221
REMARK   84  A    between atoms: _220  and  _223
REMARK   85  A    between atoms: _223  and  _224
REMARK   86  A    between atoms: _224  and  _225
REMARK   87  A    between atoms: _225  and  _226
REMARK   88  A    between atoms: _235  and  _237
REMARK   89  A    between atoms: _237  and  _238
REMARK   90  A    between atoms: _237  and  _240
REMARK   91  A    between atoms: _240  and  _241
REMARK   92  A    between atoms: _244  and  _246
REMARK   93  A    between atoms: _246  and  _247
REMARK   94  A    between atoms: _246  and  _249
REMARK   95  A    between atoms: _249  and  _250
REMARK   96  A    between atoms: _253  and  _255
REMARK   97  A    between atoms: _255  and  _256
REMARK   98  A    between atoms: _255  and  _258
REMARK   99  A    between atoms: _261  and  _263
REMARK  100  A    between atoms: _263  and  _264
REMARK  101  A    between atoms: _263  and  _266
REMARK  102  A    between atoms: _266  and  _267
REMARK  103  A    between atoms: _270  and  _272
REMARK  104  A    between atoms: _272  and  _273
REMARK  105  A    between atoms: _272  and  _275
REMARK  106  A    between atoms: _275  and  _276
REMARK  107  A    between atoms: _282  and  _283
REMARK  108  A    between atoms: _288  and  _290
REMARK  109  A    between atoms: _290  and  _291
REMARK  110  A    between atoms: _290  and  _293
REMARK  111  A    between atoms: _293  and  _294
REMARK  112  A    between atoms: _296  and  _298
REMARK  113  A    between atoms: _298  and  _299
REMARK  114  A    between atoms: _298  and  _301
REMARK  115  A    between atoms: _301  and  _302
REMARK  116  A    between atoms: _308  and  _309
REMARK  117  A    between atoms: _314  and  _316
REMARK  118  A    between atoms: _316  and  _317
REMARK  119  A    between atoms: _316  and  _319
REMARK  120  A    between atoms: _319  and  _320
REMARK  121  A    between atoms: _323  and  _325
REMARK  122  A    between atoms: _325  and  _326
REMARK  123  A    between atoms: _325  and  _328
REMARK  124  A    between atoms: _328  and  _329
REMARK  125  A    between atoms: _329  and  _330
REMARK  126  A    between atoms: _333  and  _335
REMARK  127  A    between atoms: _335  and  _336
REMARK  128  A    between atoms: _335  and  _338
REMARK  129  A    between atoms: _338  and  _339
REMARK  130  A    between atoms: _342  and  _344
REMARK  131  A    between atoms: _344  and  _345
REMARK  132  A    between atoms: _344  and  _347
REMARK  133  A    between atoms: _347  and  _348
REMARK  134  A    between atoms: _353  and  _354
REMARK  135  A    between atoms: _356  and  _358
REMARK  136  A    between atoms: _358  and  _359
REMARK  137  A    between atoms: _358  and  _361
REMARK  138  A    between atoms: _364  and  _366
REMARK  139  A    between atoms: _366  and  _367
REMARK  140  A    between atoms: _366  and  _369
REMARK  141  A    between atoms: _369  and  _370
REMARK  142  A    between atoms: _375  and  _376
REMARK  143  A    between atoms: _378  and  _380
REMARK  144  A    between atoms: _380  and  _381
REMARK  145  A    between atoms: _380  and  _383
REMARK  146  A    between atoms: _383  and  _384
REMARK  147  A    between atoms: _386  and  _388
REMARK  148  A    between atoms: _388  and  _389
REMARK  149  A    between atoms: _388  and  _391
REMARK  150  A    between atoms: _391  and  _392
REMARK  151  A    between atoms: _395  and  _397
REMARK  152  A    between atoms: _397  and  _398
REMARK  153  A    between atoms: _397  and  _400
REMARK  154  A    between atoms: _400  and  _401
REMARK  155  A    between atoms: _403  and  _405
REMARK  156  A    between atoms: _405  and  _406
REMARK  157  A    between atoms: _405  and  _408
REMARK  158  A    between atoms: _408  and  _409
REMARK  159  A    between atoms: _409  and  _410
REMARK  160  A    between atoms: _410  and  _411
REMARK  161  A    between atoms: _411  and  _412
REMARK  162  A    between atoms: _416  and  _418
REMARK  163  A    between atoms: _418  and  _419
REMARK  164  A    between atoms: _418  and  _421
REMARK  165  A    between atoms: _421  and  _422
REMARK  166  A    between atoms: _426  and  _427
REMARK  167  A    between atoms: _432  and  _434
REMARK  168  A    between atoms: _434  and  _435
REMARK  169  A    between atoms: _437  and  _439
REMARK  170  A    between atoms: _439  and  _440
REMARK  171  A    between atoms: _439  and  _442
REMARK  172  A    between atoms: _442  and  _443
REMARK  173  A    between atoms: _449  and  _451
REMARK  174  A    between atoms: _451  and  _452
REMARK  175  A    between atoms: _451  and  _454
REMARK  176  A    between atoms: _454  and  _455
REMARK  177  A    between atoms: _455  and  _456
REMARK  178  A    between atoms: _456  and  _457
REMARK  179  A    between atoms: _466  and  _468
REMARK  180  A    between atoms: _468  and  _469
REMARK  181  A    between atoms: _468  and  _471
REMARK  182  A    between atoms: _474  and  _476
REMARK  183  A    between atoms: _476  and  _477
REMARK  184  A    between atoms: _479  and  _481
REMARK  185  A    between atoms: _481  and  _482
REMARK  186  A    between atoms: _485  and  _487
REMARK  187  A    between atoms: _487  and  _488
REMARK  188  A    between atoms: _487  and  _490
REMARK  189  A    between atoms: _490  and  _491
REMARK  190  A    between atoms: _494  and  _496
REMARK  191  A    between atoms: _496  and  _497
REMARK  192  A    between atoms: _496  and  _499
REMARK  193  A    between atoms: _499  and  _500
REMARK  194  A    between atoms: _506  and  _508
REMARK  195  A    between atoms: _508  and  _509
REMARK  196  A    between atoms: _508  and  _511
REMARK  197  A    between atoms: _511  and  _512
REMARK  198  A    between atoms: _514  and  _516
REMARK  199  A    between atoms: _516  and  _517
REMARK  200  A    between atoms: _516  and  _519
REMARK  201  A    between atoms: _521  and  _523
REMARK  202  A    between atoms: _523  and  _524
REMARK  203  A    between atoms: _523  and  _526
REMARK  204  A    between atoms: _526  and  _527
REMARK  205  A    between atoms: _527  and  _528
REMARK  206  A    between atoms: _528  and  _529
REMARK  207  A    between atoms: _538  and  _540
REMARK  208  A    between atoms: _540  and  _541
REMARK  209  A    between atoms: _540  and  _543
REMARK  210  A    between atoms: _545  and  _547
REMARK  211  A    between atoms: _547  and  _548
REMARK  212  A    between atoms: _547  and  _550
REMARK  213  A    between atoms: _550  and  _551
REMARK  214  A    between atoms: _556  and  _558
REMARK  215  A    between atoms: _558  and  _559
REMARK  216  A    between atoms: _558  and  _561
REMARK  217  A    between atoms: _561  and  _562
REMARK  218  A    between atoms: _565  and  _567
REMARK  219  A    between atoms: _567  and  _568
REMARK  220  A    between atoms: _567  and  _570
REMARK  221  A    between atoms: _570  and  _571
REMARK  222  A    between atoms: _571  and  _572
REMARK  223  A    between atoms: _577  and  _579
REMARK  224  A    between atoms: _579  and  _580
REMARK  225  A    between atoms: _579  and  _582
REMARK  226  A    between atoms: _582  and  _583
REMARK  227  A    between atoms: _586  and  _588
REMARK  228  A    between atoms: _588  and  _589
REMARK  229  A    between atoms: _588  and  _591
REMARK  230  A    between atoms: _591  and  _592
REMARK  231  A    between atoms: _597  and  _598
REMARK  232  A    between atoms: _600  and  _602
REMARK  233  A    between atoms: _602  and  _603
REMARK  234  A    between atoms: _602  and  _605
REMARK  235  A    between atoms: _605  and  _606
REMARK  236  A    between atoms: _608  and  _610
REMARK  237  A    between atoms: _610  and  _611
REMARK  238  A    between atoms: _610  and  _613
REMARK  239  A    between atoms: _613  and  _614
REMARK  240  A    between atoms: _620  and  _622
REMARK  241  A    between atoms: _622  and  _623
REMARK  242  A    between atoms: _622  and  _625
REMARK  243  A    between atoms: _625  and  _626
REMARK                            x       y       z     vdW  Elec       q    Type
REMARK                         _______ _______ _______ _____ _____    ______ ____
ROOT
ATOM      1  O   HOH     1      16.643  -7.626  25.595  0.00  0.00    +0.000 OA
ENDROOT
TORSDOF 0
REMARK  Name = ../refined-set-2016/1m7y/1m7y_pocket.pdb
REMARK  243 active torsions:
REMARK  status: ('A' for Active; 'I' for Inactive)
REMARK    1  A    between atoms: _1  and  _3
REMARK    2  A    between atoms: _3  and  _4
REMARK    3  A    between atoms: _3  and  _6
REMARK    4  A    between atoms: _6  and  _7
REMARK    5  A    between atoms: _12  and  _13
REMARK    6  A    between atoms: _15  and  _17
REMARK    7  A    between atoms: _17  and  _18
REMARK    8  A    between atoms: _17  and  _20
REMARK    9  A    between atoms: _20  and  _21
REMARK   10  A    between atoms: _27  and  _29
REMARK   11  A    between atoms: _29  and  _30
REMARK   12  A    between atoms: _29  and  _32
REMARK   13  A    between atoms: _32  and  _33
REMARK   14  A    between atoms: _43  and  _45
REMARK   15  A    between atoms: _45  and  _46
REMARK   16  A    between atoms: _45  and  _48
REMARK   17  A    between atoms: _48  and  _49
REMARK   18  A    between atoms: _49  and  _50
REMARK   19  A    between atoms: _55  and  _57
REMARK   20  A    between atoms: _57  and  _58
REMARK   21  A    between atoms: _60  and  _62
REMARK   22  A    between atoms: _62  and  _63
REMARK   23  A    between atoms: _62  and  _65
REMARK   24  A    between atoms: _65  and  _66
REMARK   25  A    between atoms: _69  and  _71
REMARK   26  A    between atoms: _71  and  _72
REMARK   27  A    between atoms: _75  and  _77
REMARK   28  A    between atoms: _77  and  _78
REMARK   29  A    between atoms: _77  and  _80
REMARK   30  A    between atoms: _80  and  _81
REMARK   31  A    between atoms: _81  and  _82
REMARK   32  A    between atoms: _85  and  _87
REMARK   33  A    between atoms: _87  and  _88
REMARK   34  A    between atoms: _87  and  _90
REMARK   35  A    between atoms: _90  and  _91
REMARK   36  A    between atoms: _96  and  _98
REMARK   37  A    between atoms: _98  and  _99
REMARK   38  A    between atoms: _98  and  _101
REMARK   39  A    between atoms: _101  and  _102
REMARK   40  A    between atoms: _105  and  _107
REMARK   41  A    between atoms: _107  and  _108
REMARK   42  A    between atoms: _111  and  _113
REMARK   43  A    between atoms: _113  and  _114
REMARK   44  A    between atoms: _116  and  _118
REMARK   45  A    between atoms: _118  and  _119
REMARK   46  A    between atoms: _122  and  _124
REMARK   47  A    between atoms: _124  and  _125
REMARK   48  A    between atoms: _124  and  _127
REMARK   49  A    between atoms: _127  and  _128
REMARK   50  A    between atoms: _131  and  _133
REMARK   51  A    between atoms: _133  and  _134
REMARK   52  A    between atoms: _133  and  _136
REMARK   53  A    between atoms: _136  and  _137
REMARK   54  A    between atoms: _139  and  _141
REMARK   55  A    between atoms: _141  and  _142
REMARK   56  A    between atoms: _145  and  _147
REMARK   57  A    between atoms: _147  and  _148
REMARK   58  A    between atoms: _147  and  _150
REMARK   59  A    between atoms: _150  and  _151
REMARK   60  A    between atoms: _156  and  _158
REMARK   61  A    between atoms: _158  and  _159
REMARK   62  A    between atoms: _158  and  _161
REMARK   63  A    between atoms: _161  and  _162
REMARK   64  A    between atoms: _162  and  _163
REMARK   65  A    between atoms: _166  and  _168
REMARK   66  A    between atoms: _168  and  _169
REMARK   67  A    between atoms: _168  and  _171
REMARK   68  A    between atoms: _171  and  _172
REMARK   69  A    between atoms: _177  and  _178
REMARK   70  A    between atoms: _180  and  _182
REMARK   71  A    between atoms: _182  and  _183
REMARK   72  A    between atoms: _182  and  _185
REMARK   73  A    between atoms: _185  and  _186
REMARK   74  A    between atoms: _191  and  _192
REMARK   75  A    between atoms: _195  and  _196
REMARK   76  A    between atoms: _201  and  _203
REMARK   77  A    between atoms: _203  and  _204
REMARK   78  A    between atoms: _206  and  _208
REMARK   79  A    between atoms: _208  and  _209
REMARK   80  A    between atoms: _208  and  _211
REMARK   81  A    between atoms: _211  and  _212
REMARK   82  A    between atoms: _218  and  _220
REMARK   83  A    between atoms: _220  and  _221
REMARK   84  A    between atoms: _220  and  _223
REMARK   85  A    between atoms: _223  and  _224
REMARK   86  A    between atoms: _224  and  _225
REMARK   87  A    between atoms: _225  and  _226
REMARK   88  A    between atoms: _235  and  _237
REMARK   89  A    between atoms: _237  and  _238
REMARK   90  A    between atoms: _237  and  _240
REMARK   91  A    between atoms: _240  and  _241
REMARK   92  A    between atoms: _244  and  _246
REMARK   93  A    between atoms: _246  and  _247
REMARK   94  A    between atoms: _246  and  _249
REMARK   95  A    between atoms: _249  and  _250
REMARK   96  A    between atoms: _253  and  _255
REMARK   97  A    between atoms: _255  and  _256
REMARK   98  A    between atoms: _255  and  _258
REMARK   99  A    between atoms: _261  and  _263
REMARK  100  A    between atoms: _263  and  _264
REMARK  101  A    between atoms: _263  and  _266
REMARK  102  A    between atoms: _266  and  _267
REMARK  103  A    between atoms: _270  and  _272
REMARK  104  A    between atoms: _272  and  _273
REMARK  105  A    between atoms: _272  and  _275
REMARK  106  A    between atoms: _275  and  _276
REMARK  107  A    between atoms: _282  and  _283
REMARK  108  A    between atoms: _288  and  _290
REMARK  109  A    between atoms: _290  and  _291
REMARK  110  A    between atoms: _290  and  _293
REMARK  111  A    between atoms: _293  and  _294
REMARK  112  A    between atoms: _296  and  _298
REMARK  113  A    between atoms: _298  and  _299
REMARK  114  A    between atoms: _298  and  _301
REMARK  115  A    between atoms: _301  and  _302
REMARK  116  A    between atoms: _308  and  _309
REMARK  117  A    between atoms: _314  and  _316
REMARK  118  A    between atoms: _316  and  _317
REMARK  119  A    between atoms: _316  and  _319
REMARK  120  A    between atoms: _319  and  _320
REMARK  121  A    between atoms: _323  and  _325
REMARK  122  A    between atoms: _325  and  _326
REMARK  123  A    between atoms: _325  and  _328
REMARK  124  A    between atoms: _328  and  _329
REMARK  125  A    between atoms: _329  and  _330
REMARK  126  A    between atoms: _333  and  _335
REMARK  127  A    between atoms: _335  and  _336
REMARK  128  A    between atoms: _335  and  _338
REMARK  129  A    between atoms: _338  and  _339
REMARK  130  A    between atoms: _342  and  _344
REMARK  131  A    between atoms: _344  and  _345
REMARK  132  A    between atoms: _344  and  _347
REMARK  133  A    between atoms: _347  and  _348
REMARK  134  A    between atoms: _353  and  _354
REMARK  135  A    between atoms: _356  and  _358
REMARK  136  A    between atoms: _358  and  _359
REMARK  137  A    between atoms: _358  and  _361
REMARK  138  A    between atoms: _364  and  _366
REMARK  139  A    between atoms: _366  and  _367
REMARK  140  A    between atoms: _366  and  _369
REMARK  141  A    between atoms: _369  and  _370
REMARK  142  A    between atoms: _375  and  _376
REMARK  143  A    between atoms: _378  and  _380
REMARK  144  A    between atoms: _380  and  _381
REMARK  145  A    between atoms: _380  and  _383
REMARK  146  A    between atoms: _383  and  _384
REMARK  147  A    between atoms: _386  and  _388
REMARK  148  A    between atoms: _388  and  _389
REMARK  149  A    between atoms: _388  and  _391
REMARK  150  A    between atoms: _391  and  _392
REMARK  151  A    between atoms: _395  and  _397
REMARK  152  A    between atoms: _397  and  _398
REMARK  153  A    between atoms: _397  and  _400
REMARK  154  A    between atoms: _400  and  _401
REMARK  155  A    between atoms: _403  and  _405
REMARK  156  A    between atoms: _405  and  _406
REMARK  157  A    between atoms: _405  and  _408
REMARK  158  A    between atoms: _408  and  _409
REMARK  159  A    between atoms: _409  and  _410
REMARK  160  A    between atoms: _410  and  _411
REMARK  161  A    between atoms: _411  and  _412
REMARK  162  A    between atoms: _416  and  _418
REMARK  163  A    between atoms: _418  and  _419
REMARK  164  A    between atoms: _418  and  _421
REMARK  165  A    between atoms: _421  and  _422
REMARK  166  A    between atoms: _426  and  _427
REMARK  167  A    between atoms: _432  and  _434
REMARK  168  A    between atoms: _434  and  _435
REMARK  169  A    between atoms: _437  and  _439
REMARK  170  A    between atoms: _439  and  _440
REMARK  171  A    between atoms: _439  and  _442
REMARK  172  A    between atoms: _442  and  _443
REMARK  173  A    between atoms: _449  and  _451
REMARK  174  A    between atoms: _451  and  _452
REMARK  175  A    between atoms: _451  and  _454
REMARK  176  A    between atoms: _454  and  _455
REMARK  177  A    between atoms: _455  and  _456
REMARK  178  A    between atoms: _456  and  _457
REMARK  179  A    between atoms: _466  and  _468
REMARK  180  A    between atoms: _468  and  _469
REMARK  181  A    between atoms: _468  and  _471
REMARK  182  A    between atoms: _474  and  _476
REMARK  183  A    between atoms: _476  and  _477
REMARK  184  A    between atoms: _479  and  _481
REMARK  185  A    between atoms: _481  and  _482
REMARK  186  A    between atoms: _485  and  _487
REMARK  187  A    between atoms: _487  and  _488
REMARK  188  A    between atoms: _487  and  _490
REMARK  189  A    between atoms: _490  and  _491
REMARK  190  A    between atoms: _494  and  _496
REMARK  191  A    between atoms: _496  and  _497
REMARK  192  A    between atoms: _496  and  _499
REMARK  193  A    between atoms: _499  and  _500
REMARK  194  A    between atoms: _506  and  _508
REMARK  195  A    between atoms: _508  and  _509
REMARK  196  A    between atoms: _508  and  _511
REMARK  197  A    between atoms: _511  and  _512
REMARK  198  A    between atoms: _514  and  _516
REMARK  199  A    between atoms: _516  and  _517
REMARK  200  A    between atoms: _516  and  _519
REMARK  201  A    between atoms: _521  and  _523
REMARK  202  A    between atoms: _523  and  _524
REMARK  203  A    between atoms: _523  and  _526
REMARK  204  A    between atoms: _526  and  _527
REMARK  205  A    between atoms: _527  and  _528
REMARK  206  A    between atoms: _528  and  _529
REMARK  207  A    between atoms: _538  and  _540
REMARK  208  A    between atoms: _540  and  _541
REMARK  209  A    between atoms: _540  and  _543
REMARK  210  A    between atoms: _545  and  _547
REMARK  211  A    between atoms: _547  and  _548
REMARK  212  A    between atoms: _547  and  _550
REMARK  213  A    between atoms: _550  and  _551
REMARK  214  A    between atoms: _556  and  _558
REMARK  215  A    between atoms: _558  and  _559
REMARK  216  A    between atoms: _558  and  _561
REMARK  217  A    between atoms: _561  and  _562
REMARK  218  A    between atoms: _565  and  _567
REMARK  219  A    between atoms: _567  and  _568
REMARK  220  A    between atoms: _567  and  _570
REMARK  221  A    between atoms: _570  and  _571
REMARK  222  A    between atoms: _571  and  _572
REMARK  223  A    between atoms: _577  and  _579
REMARK  224  A    between atoms: _579  and  _580
REMARK  225  A    between atoms: _579  and  _582
REMARK  226  A    between atoms: _582  and  _583
REMARK  227  A    between atoms: _586  and  _588
REMARK  228  A    between atoms: _588  and  _589
REMARK  229  A    between atoms: _588  and  _591
REMARK  230  A    between atoms: _591  and  _592
REMARK  231  A    between atoms: _597  and  _598
REMARK  232  A    between atoms: _600  and  _602
REMARK  233  A    between atoms: _602  and  _603
REMARK  234  A    between atoms: _602  and  _605
REMARK  235  A    between atoms: _605  and  _606
REMARK  236  A    between atoms: _608  and  _610
REMARK  237  A    between atoms: _610  and  _611
REMARK  238  A    between atoms: _610  and  _613
REMARK  239  A    between atoms: _613  and  _614
REMARK  240  A    between atoms: _620  and  _622
REMARK  241  A    between atoms: _622  and  _623
REMARK  242  A    between atoms: _622  and  _625
REMARK  243  A    between atoms: _625  and  _626
REMARK                            x       y       z     vdW  Elec       q    Type
REMARK                         _______ _______ _______ _____ _____    ______ ____
ROOT
ATOM      1  O   HOH     1      16.280  -7.038  29.933  0.00  0.00    +0.000 OA
ENDROOT
TORSDOF 0
REMARK  Name = ../refined-set-2016/1m7y/1m7y_pocket.pdb
REMARK  243 active torsions:
REMARK  status: ('A' for Active; 'I' for Inactive)
REMARK    1  A    between atoms: _1  and  _3
REMARK    2  A    between atoms: _3  and  _4
REMARK    3  A    between atoms: _3  and  _6
REMARK    4  A    between atoms: _6  and  _7
REMARK    5  A    between atoms: _12  and  _13
REMARK    6  A    between atoms: _15  and  _17
REMARK    7  A    between atoms: _17  and  _18
REMARK    8  A    between atoms: _17  and  _20
REMARK    9  A    between atoms: _20  and  _21
REMARK   10  A    between atoms: _27  and  _29
REMARK   11  A    between atoms: _29  and  _30
REMARK   12  A    between atoms: _29  and  _32
REMARK   13  A    between atoms: _32  and  _33
REMARK   14  A    between atoms: _43  and  _45
REMARK   15  A    between atoms: _45  and  _46
REMARK   16  A    between atoms: _45  and  _48
REMARK   17  A    between atoms: _48  and  _49
REMARK   18  A    between atoms: _49  and  _50
REMARK   19  A    between atoms: _55  and  _57
REMARK   20  A    between atoms: _57  and  _58
REMARK   21  A    between atoms: _60  and  _62
REMARK   22  A    between atoms: _62  and  _63
REMARK   23  A    between atoms: _62  and  _65
REMARK   24  A    between atoms: _65  and  _66
REMARK   25  A    between atoms: _69  and  _71
REMARK   26  A    between atoms: _71  and  _72
REMARK   27  A    between atoms: _75  and  _77
REMARK   28  A    between atoms: _77  and  _78
REMARK   29  A    between atoms: _77  and  _80
REMARK   30  A    between atoms: _80  and  _81
REMARK   31  A    between atoms: _81  and  _82
REMARK   32  A    between atoms: _85  and  _87
REMARK   33  A    between atoms: _87  and  _88
REMARK   34  A    between atoms: _87  and  _90
REMARK   35  A    between atoms: _90  and  _91
REMARK   36  A    between atoms: _96  and  _98
REMARK   37  A    between atoms: _98  and  _99
REMARK   38  A    between atoms: _98  and  _101
REMARK   39  A    between atoms: _101  and  _102
REMARK   40  A    between atoms: _105  and  _107
REMARK   41  A    between atoms: _107  and  _108
REMARK   42  A    between atoms: _111  and  _113
REMARK   43  A    between atoms: _113  and  _114
REMARK   44  A    between atoms: _116  and  _118
REMARK   45  A    between atoms: _118  and  _119
REMARK   46  A    between atoms: _122  and  _124
REMARK   47  A    between atoms: _124  and  _125
REMARK   48  A    between atoms: _124  and  _127
REMARK   49  A    between atoms: _127  and  _128
REMARK   50  A    between atoms: _131  and  _133
REMARK   51  A    between atoms: _133  and  _134
REMARK   52  A    between atoms: _133  and  _136
REMARK   53  A    between atoms: _136  and  _137
REMARK   54  A    between atoms: _139  and  _141
REMARK   55  A    between atoms: _141  and  _142
REMARK   56  A    between atoms: _145  and  _147
REMARK   57  A    between atoms: _147  and  _148
REMARK   58  A    between atoms: _147  and  _150
REMARK   59  A    between atoms: _150  and  _151
REMARK   60  A    between atoms: _156  and  _158
REMARK   61  A    between atoms: _158  and  _159
REMARK   62  A    between atoms: _158  and  _161
REMARK   63  A    between atoms: _161  and  _162
REMARK   64  A    between atoms: _162  and  _163
REMARK   65  A    between atoms: _166  and  _168
REMARK   66  A    between atoms: _168  and  _169
REMARK   67  A    between atoms: _168  and  _171
REMARK   68  A    between atoms: _171  and  _172
REMARK   69  A    between atoms: _177  and  _178
REMARK   70  A    between atoms: _180  and  _182
REMARK   71  A    between atoms: _182  and  _183
REMARK   72  A    between atoms: _182  and  _185
REMARK   73  A    between atoms: _185  and  _186
REMARK   74  A    between atoms: _191  and  _192
REMARK   75  A    between atoms: _195  and  _196
REMARK   76  A    between atoms: _201  and  _203
REMARK   77  A    between atoms: _203  and  _204
REMARK   78  A    between atoms: _206  and  _208
REMARK   79  A    between atoms: _208  and  _209
REMARK   80  A    between atoms: _208  and  _211
REMARK   81  A    between atoms: _211  and  _212
REMARK   82  A    between atoms: _218  and  _220
REMARK   83  A    between atoms: _220  and  _221
REMARK   84  A    between atoms: _220  and  _223
REMARK   85  A    between atoms: _223  and  _224
REMARK   86  A    between atoms: _224  and  _225
REMARK   87  A    between atoms: _225  and  _226
REMARK   88  A    between atoms: _235  and  _237
REMARK   89  A    between atoms: _237  and  _238
REMARK   90  A    between atoms: _237  and  _240
REMARK   91  A    between atoms: _240  and  _241
REMARK   92  A    between atoms: _244  and  _246
REMARK   93  A    between atoms: _246  and  _247
REMARK   94  A    between atoms: _246  and  _249
REMARK   95  A    between atoms: _249  and  _250
REMARK   96  A    between atoms: _253  and  _255
REMARK   97  A    between atoms: _255  and  _256
REMARK   98  A    between atoms: _255  and  _258
REMARK   99  A    between atoms: _261  and  _263
REMARK  100  A    between atoms: _263  and  _264
REMARK  101  A    between atoms: _263  and  _266
REMARK  102  A    between atoms: _266  and  _267
REMARK  103  A    between atoms: _270  and  _272
REMARK  104  A    between atoms: _272  and  _273
REMARK  105  A    between atoms: _272  and  _275
REMARK  106  A    between atoms: _275  and  _276
REMARK  107  A    between atoms: _282  and  _283
REMARK  108  A    between atoms: _288  and  _290
REMARK  109  A    between atoms: _290  and  _291
REMARK  110  A    between atoms: _290  and  _293
REMARK  111  A    between atoms: _293  and  _294
REMARK  112  A    between atoms: _296  and  _298
REMARK  113  A    between atoms: _298  and  _299
REMARK  114  A    between atoms: _298  and  _301
REMARK  115  A    between atoms: _301  and  _302
REMARK  116  A    between atoms: _308  and  _309
REMARK  117  A    between atoms: _314  and  _316
REMARK  118  A    between atoms: _316  and  _317
REMARK  119  A    between atoms: _316  and  _319
REMARK  120  A    between atoms: _319  and  _320
REMARK  121  A    between atoms: _323  and  _325
REMARK  122  A    between atoms: _325  and  _326
REMARK  123  A    between atoms: _325  and  _328
REMARK  124  A    between atoms: _328  and  _329
REMARK  125  A    between atoms: _329  and  _330
REMARK  126  A    between atoms: _333  and  _335
REMARK  127  A    between atoms: _335  and  _336
REMARK  128  A    between atoms: _335  and  _338
REMARK  129  A    between atoms: _338  and  _339
REMARK  130  A    between atoms: _342  and  _344
REMARK  131  A    between atoms: _344  and  _345
REMARK  132  A    between atoms: _344  and  _347
REMARK  133  A    between atoms: _347  and  _348
REMARK  134  A    between atoms: _353  and  _354
REMARK  135  A    between atoms: _356  and  _358
REMARK  136  A    between atoms: _358  and  _359
REMARK  137  A    between atoms: _358  and  _361
REMARK  138  A    between atoms: _364  and  _366
REMARK  139  A    between atoms: _366  and  _367
REMARK  140  A    between atoms: _366  and  _369
REMARK  141  A    between atoms: _369  and  _370
REMARK  142  A    between atoms: _375  and  _376
REMARK  143  A    between atoms: _378  and  _380
REMARK  144  A    between atoms: _380  and  _381
REMARK  145  A    between atoms: _380  and  _383
REMARK  146  A    between atoms: _383  and  _384
REMARK  147  A    between atoms: _386  and  _388
REMARK  148  A    between atoms: _388  and  _389
REMARK  149  A    between atoms: _388  and  _391
REMARK  150  A    between atoms: _391  and  _392
REMARK  151  A    between atoms: _395  and  _397
REMARK  152  A    between atoms: _397  and  _398
REMARK  153  A    between atoms: _397  and  _400
REMARK  154  A    between atoms: _400  and  _401
REMARK  155  A    between atoms: _403  and  _405
REMARK  156  A    between atoms: _405  and  _406
REMARK  157  A    between atoms: _405  and  _408
REMARK  158  A    between atoms: _408  and  _409
REMARK  159  A    between atoms: _409  and  _410
REMARK  160  A    between atoms: _410  and  _411
REMARK  161  A    between atoms: _411  and  _412
REMARK  162  A    between atoms: _416  and  _418
REMARK  163  A    between atoms: _418  and  _419
REMARK  164  A    between atoms: _418  and  _421
REMARK  165  A    between atoms: _421  and  _422
REMARK  166  A    between atoms: _426  and  _427
REMARK  167  A    between atoms: _432  and  _434
REMARK  168  A    between atoms: _434  and  _435
REMARK  169  A    between atoms: _437  and  _439
REMARK  170  A    between atoms: _439  and  _440
REMARK  171  A    between atoms: _439  and  _442
REMARK  172  A    between atoms: _442  and  _443
REMARK  173  A    between atoms: _449  and  _451
REMARK  174  A    between atoms: _451  and  _452
REMARK  175  A    between atoms: _451  and  _454
REMARK  176  A    between atoms: _454  and  _455
REMARK  177  A    between atoms: _455  and  _456
REMARK  178  A    between atoms: _456  and  _457
REMARK  179  A    between atoms: _466  and  _468
REMARK  180  A    between atoms: _468  and  _469
REMARK  181  A    between atoms: _468  and  _471
REMARK  182  A    between atoms: _474  and  _476
REMARK  183  A    between atoms: _476  and  _477
REMARK  184  A    between atoms: _479  and  _481
REMARK  185  A    between atoms: _481  and  _482
REMARK  186  A    between atoms: _485  and  _487
REMARK  187  A    between atoms: _487  and  _488
REMARK  188  A    between atoms: _487  and  _490
REMARK  189  A    between atoms: _490  and  _491
REMARK  190  A    between atoms: _494  and  _496
REMARK  191  A    between atoms: _496  and  _497
REMARK  192  A    between atoms: _496  and  _499
REMARK  193  A    between atoms: _499  and  _500
REMARK  194  A    between atoms: _506  and  _508
REMARK  195  A    between atoms: _508  and  _509
REMARK  196  A    between atoms: _508  and  _511
REMARK  197  A    between atoms: _511  and  _512
REMARK  198  A    between atoms: _514  and  _516
REMARK  199  A    between atoms: _516  and  _517
REMARK  200  A    between atoms: _516  and  _519
REMARK  201  A    between atoms: _521  and  _523
REMARK  202  A    between atoms: _523  and  _524
REMARK  203  A    between atoms: _523  and  _526
REMARK  204  A    between atoms: _526  and  _527
REMARK  205  A    between atoms: _527  and  _528
REMARK  206  A    between atoms: _528  and  _529
REMARK  207  A    between atoms: _538  and  _540
REMARK  208  A    between atoms: _540  and  _541
REMARK  209  A    between atoms: _540  and  _543
REMARK  210  A    between atoms: _545  and  _547
REMARK  211  A    between atoms: _547  and  _548
REMARK  212  A    between atoms: _547  and  _550
REMARK  213  A    between atoms: _550  and  _551
REMARK  214  A    between atoms: _556  and  _558
REMARK  215  A    between atoms: _558  and  _559
REMARK  216  A    between atoms: _558  and  _561
REMARK  217  A    between atoms: _561  and  _562
REMARK  218  A    between atoms: _565  and  _567
REMARK  219  A    between atoms: _567  and  _568
REMARK  220  A    between atoms: _567  and  _570
REMARK  221  A    between atoms: _570  and  _571
REMARK  222  A    between atoms: _571  and  _572
REMARK  223  A    between atoms: _577  and  _579
REMARK  224  A    between atoms: _579  and  _580
REMARK  225  A    between atoms: _579  and  _582
REMARK  226  A    between atoms: _582  and  _583
REMARK  227  A    between atoms: _586  and  _588
REMARK  228  A    between atoms: _588  and  _589
REMARK  229  A    between atoms: _588  and  _591
REMARK  230  A    between atoms: _591  and  _592
REMARK  231  A    between atoms: _597  and  _598
REMARK  232  A    between atoms: _600  and  _602
REMARK  233  A    between atoms: _602  and  _603
REMARK  234  A    between atoms: _602  and  _605
REMARK  235  A    between atoms: _605  and  _606
REMARK  236  A    between atoms: _608  and  _610
REMARK  237  A    between atoms: _610  and  _611
REMARK  238  A    between atoms: _610  and  _613
REMARK  239  A    between atoms: _613  and  _614
REMARK  240  A    between atoms: _620  and  _622
REMARK  241  A    between atoms: _622  and  _623
REMARK  242  A    between atoms: _622  and  _625
REMARK  243  A    between atoms: _625  and  _626
REMARK                            x       y       z     vdW  Elec       q    Type
REMARK                         _______ _______ _______ _____ _____    ______ ____
ROOT
ATOM      1  O   HOH     1      15.349  -4.244  29.188  0.00  0.00    +0.000 OA
ENDROOT
TORSDOF 0
REMARK  Name = ../refined-set-2016/1m7y/1m7y_pocket.pdb
REMARK  243 active torsions:
REMARK  status: ('A' for Active; 'I' for Inactive)
REMARK    1  A    between atoms: _1  and  _3
REMARK    2  A    between atoms: _3  and  _4
REMARK    3  A    between atoms: _3  and  _6
REMARK    4  A    between atoms: _6  and  _7
REMARK    5  A    between atoms: _12  and  _13
REMARK    6  A    between atoms: _15  and  _17
REMARK    7  A    between atoms: _17  and  _18
REMARK    8  A    between atoms: _17  and  _20
REMARK    9  A    between atoms: _20  and  _21
REMARK   10  A    between atoms: _27  and  _29
REMARK   11  A    between atoms: _29  and  _30
REMARK   12  A    between atoms: _29  and  _32
REMARK   13  A    between atoms: _32  and  _33
REMARK   14  A    between atoms: _43  and  _45
REMARK   15  A    between atoms: _45  and  _46
REMARK   16  A    between atoms: _45  and  _48
REMARK   17  A    between atoms: _48  and  _49
REMARK   18  A    between atoms: _49  and  _50
REMARK   19  A    between atoms: _55  and  _57
REMARK   20  A    between atoms: _57  and  _58
REMARK   21  A    between atoms: _60  and  _62
REMARK   22  A    between atoms: _62  and  _63
REMARK   23  A    between atoms: _62  and  _65
REMARK   24  A    between atoms: _65  and  _66
REMARK   25  A    between atoms: _69  and  _71
REMARK   26  A    between atoms: _71  and  _72
REMARK   27  A    between atoms: _75  and  _77
REMARK   28  A    between atoms: _77  and  _78
REMARK   29  A    between atoms: _77  and  _80
REMARK   30  A    between atoms: _80  and  _81
REMARK   31  A    between atoms: _81  and  _82
REMARK   32  A    between atoms: _85  and  _87
REMARK   33  A    between atoms: _87  and  _88
REMARK   34  A    between atoms: _87  and  _90
REMARK   35  A    between atoms: _90  and  _91
REMARK   36  A    between atoms: _96  and  _98
REMARK   37  A    between atoms: _98  and  _99
REMARK   38  A    between atoms: _98  and  _101
REMARK   39  A    between atoms: _101  and  _102
REMARK   40  A    between atoms: _105  and  _107
REMARK   41  A    between atoms: _107  and  _108
REMARK   42  A    between atoms: _111  and  _113
REMARK   43  A    between atoms: _113  and  _114
REMARK   44  A    between atoms: _116  and  _118
REMARK   45  A    between atoms: _118  and  _119
REMARK   46  A    between atoms: _122  and  _124
REMARK   47  A    between atoms: _124  and  _125
REMARK   48  A    between atoms: _124  and  _127
REMARK   49  A    between atoms: _127  and  _128
REMARK   50  A    between atoms: _131  and  _133
REMARK   51  A    between atoms: _133  and  _134
REMARK   52  A    between atoms: _133  and  _136
REMARK   53  A    between atoms: _136  and  _137
REMARK   54  A    between atoms: _139  and  _141
REMARK   55  A    between atoms: _141  and  _142
REMARK   56  A    between atoms: _145  and  _147
REMARK   57  A    between atoms: _147  and  _148
REMARK   58  A    between atoms: _147  and  _150
REMARK   59  A    between atoms: _150  and  _151
REMARK   60  A    between atoms: _156  and  _158
REMARK   61  A    between atoms: _158  and  _159
REMARK   62  A    between atoms: _158  and  _161
REMARK   63  A    between atoms: _161  and  _162
REMARK   64  A    between atoms: _162  and  _163
REMARK   65  A    between atoms: _166  and  _168
REMARK   66  A    between atoms: _168  and  _169
REMARK   67  A    between atoms: _168  and  _171
REMARK   68  A    between atoms: _171  and  _172
REMARK   69  A    between atoms: _177  and  _178
REMARK   70  A    between atoms: _180  and  _182
REMARK   71  A    between atoms: _182  and  _183
REMARK   72  A    between atoms: _182  and  _185
REMARK   73  A    between atoms: _185  and  _186
REMARK   74  A    between atoms: _191  and  _192
REMARK   75  A    between atoms: _195  and  _196
REMARK   76  A    between atoms: _201  and  _203
REMARK   77  A    between atoms: _203  and  _204
REMARK   78  A    between atoms: _206  and  _208
REMARK   79  A    between atoms: _208  and  _209
REMARK   80  A    between atoms: _208  and  _211
REMARK   81  A    between atoms: _211  and  _212
REMARK   82  A    between atoms: _218  and  _220
REMARK   83  A    between atoms: _220  and  _221
REMARK   84  A    between atoms: _220  and  _223
REMARK   85  A    between atoms: _223  and  _224
REMARK   86  A    between atoms: _224  and  _225
REMARK   87  A    between atoms: _225  and  _226
REMARK   88  A    between atoms: _235  and  _237
REMARK   89  A    between atoms: _237  and  _238
REMARK   90  A    between atoms: _237  and  _240
REMARK   91  A    between atoms: _240  and  _241
REMARK   92  A    between atoms: _244  and  _246
REMARK   93  A    between atoms: _246  and  _247
REMARK   94  A    between atoms: _246  and  _249
REMARK   95  A    between atoms: _249  and  _250
REMARK   96  A    between atoms: _253  and  _255
REMARK   97  A    between atoms: _255  and  _256
REMARK   98  A    between atoms: _255  and  _258
REMARK   99  A    between atoms: _261  and  _263
REMARK  100  A    between atoms: _263  and  _264
REMARK  101  A    between atoms: _263  and  _266
REMARK  102  A    between atoms: _266  and  _267
REMARK  103  A    between atoms: _270  and  _272
REMARK  104  A    between atoms: _272  and  _273
REMARK  105  A    between atoms: _272  and  _275
REMARK  106  A    between atoms: _275  and  _276
REMARK  107  A    between atoms: _282  and  _283
REMARK  108  A    between atoms: _288  and  _290
REMARK  109  A    between atoms: _290  and  _291
REMARK  110  A    between atoms: _290  and  _293
REMARK  111  A    between atoms: _293  and  _294
REMARK  112  A    between atoms: _296  and  _298
REMARK  113  A    between atoms: _298  and  _299
REMARK  114  A    between atoms: _298  and  _301
REMARK  115  A    between atoms: _301  and  _302
REMARK  116  A    between atoms: _308  and  _309
REMARK  117  A    between atoms: _314  and  _316
REMARK  118  A    between atoms: _316  and  _317
REMARK  119  A    between atoms: _316  and  _319
REMARK  120  A    between atoms: _319  and  _320
REMARK  121  A    between atoms: _323  and  _325
REMARK  122  A    between atoms: _325  and  _326
REMARK  123  A    between atoms: _325  and  _328
REMARK  124  A    between atoms: _328  and  _329
REMARK  125  A    between atoms: _329  and  _330
REMARK  126  A    between atoms: _333  and  _335
REMARK  127  A    between atoms: _335  and  _336
REMARK  128  A    between atoms: _335  and  _338
REMARK  129  A    between atoms: _338  and  _339
REMARK  130  A    between atoms: _342  and  _344
REMARK  131  A    between atoms: _344  and  _345
REMARK  132  A    between atoms: _344  and  _347
REMARK  133  A    between atoms: _347  and  _348
REMARK  134  A    between atoms: _353  and  _354
REMARK  135  A    between atoms: _356  and  _358
REMARK  136  A    between atoms: _358  and  _359
REMARK  137  A    between atoms: _358  and  _361
REMARK  138  A    between atoms: _364  and  _366
REMARK  139  A    between atoms: _366  and  _367
REMARK  140  A    between atoms: _366  and  _369
REMARK  141  A    between atoms: _369  and  _370
REMARK  142  A    between atoms: _375  and  _376
REMARK  143  A    between atoms: _378  and  _380
REMARK  144  A    between atoms: _380  and  _381
REMARK  145  A    between atoms: _380  and  _383
REMARK  146  A    between atoms: _383  and  _384
REMARK  147  A    between atoms: _386  and  _388
REMARK  148  A    between atoms: _388  and  _389
REMARK  149  A    between atoms: _388  and  _391
REMARK  150  A    between atoms: _391  and  _392
REMARK  151  A    between atoms: _395  and  _397
REMARK  152  A    between atoms: _397  and  _398
REMARK  153  A    between atoms: _397  and  _400
REMARK  154  A    between atoms: _400  and  _401
REMARK  155  A    between atoms: _403  and  _405
REMARK  156  A    between atoms: _405  and  _406
REMARK  157  A    between atoms: _405  and  _408
REMARK  158  A    between atoms: _408  and  _409
REMARK  159  A    between atoms: _409  and  _410
REMARK  160  A    between atoms: _410  and  _411
REMARK  161  A    between atoms: _411  and  _412
REMARK  162  A    between atoms: _416  and  _418
REMARK  163  A    between atoms: _418  and  _419
REMARK  164  A    between atoms: _418  and  _421
REMARK  165  A    between atoms: _421  and  _422
REMARK  166  A    between atoms: _426  and  _427
REMARK  167  A    between atoms: _432  and  _434
REMARK  168  A    between atoms: _434  and  _435
REMARK  169  A    between atoms: _437  and  _439
REMARK  170  A    between atoms: _439  and  _440
REMARK  171  A    between atoms: _439  and  _442
REMARK  172  A    between atoms: _442  and  _443
REMARK  173  A    between atoms: _449  and  _451
REMARK  174  A    between atoms: _451  and  _452
REMARK  175  A    between atoms: _451  and  _454
REMARK  176  A    between atoms: _454  and  _455
REMARK  177  A    between atoms: _455  and  _456
REMARK  178  A    between atoms: _456  and  _457
REMARK  179  A    between atoms: _466  and  _468
REMARK  180  A    between atoms: _468  and  _469
REMARK  181  A    between atoms: _468  and  _471
REMARK  182  A    between atoms: _474  and  _476
REMARK  183  A    between atoms: _476  and  _477
REMARK  184  A    between atoms: _479  and  _481
REMARK  185  A    between atoms: _481  and  _482
REMARK  186  A    between atoms: _485  and  _487
REMARK  187  A    between atoms: _487  and  _488
REMARK  188  A    between atoms: _487  and  _490
REMARK  189  A    between atoms: _490  and  _491
REMARK  190  A    between atoms: _494  and  _496
REMARK  191  A    between atoms: _496  and  _497
REMARK  192  A    between atoms: _496  and  _499
REMARK  193  A    between atoms: _499  and  _500
REMARK  194  A    between atoms: _506  and  _508
REMARK  195  A    between atoms: _508  and  _509
REMARK  196  A    between atoms: _508  and  _511
REMARK  197  A    between atoms: _511  and  _512
REMARK  198  A    between atoms: _514  and  _516
REMARK  199  A    between atoms: _516  and  _517
REMARK  200  A    between atoms: _516  and  _519
REMARK  201  A    between atoms: _521  and  _523
REMARK  202  A    between atoms: _523  and  _524
REMARK  203  A    between atoms: _523  and  _526
REMARK  204  A    between atoms: _526  and  _527
REMARK  205  A    between atoms: _527  and  _528
REMARK  206  A    between atoms: _528  and  _529
REMARK  207  A    between atoms: _538  and  _540
REMARK  208  A    between atoms: _540  and  _541
REMARK  209  A    between atoms: _540  and  _543
REMARK  210  A    between atoms: _545  and  _547
REMARK  211  A    between atoms: _547  and  _548
REMARK  212  A    between atoms: _547  and  _550
REMARK  213  A    between atoms: _550  and  _551
REMARK  214  A    between atoms: _556  and  _558
REMARK  215  A    between atoms: _558  and  _559
REMARK  216  A    between atoms: _558  and  _561
REMARK  217  A    between atoms: _561  and  _562
REMARK  218  A    between atoms: _565  and  _567
REMARK  219  A    between atoms: _567  and  _568
REMARK  220  A    between atoms: _567  and  _570
REMARK  221  A    between atoms: _570  and  _571
REMARK  222  A    between atoms: _571  and  _572
REMARK  223  A    between atoms: _577  and  _579
REMARK  224  A    between atoms: _579  and  _580
REMARK  225  A    between atoms: _579  and  _582
REMARK  226  A    between atoms: _582  and  _583
REMARK  227  A    between atoms: _586  and  _588
REMARK  228  A    between atoms: _588  and  _589
REMARK  229  A    between atoms: _588  and  _591
REMARK  230  A    between atoms: _591  and  _592
REMARK  231  A    between atoms: _597  and  _598
REMARK  232  A    between atoms: _600  and  _602
REMARK  233  A    between atoms: _602  and  _603
REMARK  234  A    between atoms: _602  and  _605
REMARK  235  A    between atoms: _605  and  _606
REMARK  236  A    between atoms: _608  and  _610
REMARK  237  A    between atoms: _610  and  _611
REMARK  238  A    between atoms: _610  and  _613
REMARK  239  A    between atoms: _613  and  _614
REMARK  240  A    between atoms: _620  and  _622
REMARK  241  A    between atoms: _622  and  _623
REMARK  242  A    between atoms: _622  and  _625
REMARK  243  A    between atoms: _625  and  _626
REMARK                            x       y       z     vdW  Elec       q    Type
REMARK                         _______ _______ _______ _____ _____    ______ ____
ROOT
ATOM      1  O   HOH     1      16.096  -0.965  31.734  0.00  0.00    +0.000 OA
ENDROOT
TORSDOF 0
REMARK  Name = ../refined-set-2016/1m7y/1m7y_pocket.pdb
REMARK  243 active torsions:
REMARK  status: ('A' for Active; 'I' for Inactive)
REMARK    1  A    between atoms: _1  and  _3
REMARK    2  A    between atoms: _3  and  _4
REMARK    3  A    between atoms: _3  and  _6
REMARK    4  A    between atoms: _6  and  _7
REMARK    5  A    between atoms: _12  and  _13
REMARK    6  A    between atoms: _15  and  _17
REMARK    7  A    between atoms: _17  and  _18
REMARK    8  A    between atoms: _17  and  _20
REMARK    9  A    between atoms: _20  and  _21
REMARK   10  A    between atoms: _27  and  _29
REMARK   11  A    between atoms: _29  and  _30
REMARK   12  A    between atoms: _29  and  _32
REMARK   13  A    between atoms: _32  and  _33
REMARK   14  A    between atoms: _43  and  _45
REMARK   15  A    between atoms: _45  and  _46
REMARK   16  A    between atoms: _45  and  _48
REMARK   17  A    between atoms: _48  and  _49
REMARK   18  A    between atoms: _49  and  _50
REMARK   19  A    between atoms: _55  and  _57
REMARK   20  A    between atoms: _57  and  _58
REMARK   21  A    between atoms: _60  and  _62
REMARK   22  A    between atoms: _62  and  _63
REMARK   23  A    between atoms: _62  and  _65
REMARK   24  A    between atoms: _65  and  _66
REMARK   25  A    between atoms: _69  and  _71
REMARK   26  A    between atoms: _71  and  _72
REMARK   27  A    between atoms: _75  and  _77
REMARK   28  A    between atoms: _77  and  _78
REMARK   29  A    between atoms: _77  and  _80
REMARK   30  A    between atoms: _80  and  _81
REMARK   31  A    between atoms: _81  and  _82
REMARK   32  A    between atoms: _85  and  _87
REMARK   33  A    between atoms: _87  and  _88
REMARK   34  A    between atoms: _87  and  _90
REMARK   35  A    between atoms: _90  and  _91
REMARK   36  A    between atoms: _96  and  _98
REMARK   37  A    between atoms: _98  and  _99
REMARK   38  A    between atoms: _98  and  _101
REMARK   39  A    between atoms: _101  and  _102
REMARK   40  A    between atoms: _105  and  _107
REMARK   41  A    between atoms: _107  and  _108
REMARK   42  A    between atoms: _111  and  _113
REMARK   43  A    between atoms: _113  and  _114
REMARK   44  A    between atoms: _116  and  _118
REMARK   45  A    between atoms: _118  and  _119
REMARK   46  A    between atoms: _122  and  _124
REMARK   47  A    between atoms: _124  and  _125
REMARK   48  A    between atoms: _124  and  _127
REMARK   49  A    between atoms: _127  and  _128
REMARK   50  A    between atoms: _131  and  _133
REMARK   51  A    between atoms: _133  and  _134
REMARK   52  A    between atoms: _133  and  _136
REMARK   53  A    between atoms: _136  and  _137
REMARK   54  A    between atoms: _139  and  _141
REMARK   55  A    between atoms: _141  and  _142
REMARK   56  A    between atoms: _145  and  _147
REMARK   57  A    between atoms: _147  and  _148
REMARK   58  A    between atoms: _147  and  _150
REMARK   59  A    between atoms: _150  and  _151
REMARK   60  A    between atoms: _156  and  _158
REMARK   61  A    between atoms: _158  and  _159
REMARK   62  A    between atoms: _158  and  _161
REMARK   63  A    between atoms: _161  and  _162
REMARK   64  A    between atoms: _162  and  _163
REMARK   65  A    between atoms: _166  and  _168
REMARK   66  A    between atoms: _168  and  _169
REMARK   67  A    between atoms: _168  and  _171
REMARK   68  A    between atoms: _171  and  _172
REMARK   69  A    between atoms: _177  and  _178
REMARK   70  A    between atoms: _180  and  _182
REMARK   71  A    between atoms: _182  and  _183
REMARK   72  A    between atoms: _182  and  _185
REMARK   73  A    between atoms: _185  and  _186
REMARK   74  A    between atoms: _191  and  _192
REMARK   75  A    between atoms: _195  and  _196
REMARK   76  A    between atoms: _201  and  _203
REMARK   77  A    between atoms: _203  and  _204
REMARK   78  A    between atoms: _206  and  _208
REMARK   79  A    between atoms: _208  and  _209
REMARK   80  A    between atoms: _208  and  _211
REMARK   81  A    between atoms: _211  and  _212
REMARK   82  A    between atoms: _218  and  _220
REMARK   83  A    between atoms: _220  and  _221
REMARK   84  A    between atoms: _220  and  _223
REMARK   85  A    between atoms: _223  and  _224
REMARK   86  A    between atoms: _224  and  _225
REMARK   87  A    between atoms: _225  and  _226
REMARK   88  A    between atoms: _235  and  _237
REMARK   89  A    between atoms: _237  and  _238
REMARK   90  A    between atoms: _237  and  _240
REMARK   91  A    between atoms: _240  and  _241
REMARK   92  A    between atoms: _244  and  _246
REMARK   93  A    between atoms: _246  and  _247
REMARK   94  A    between atoms: _246  and  _249
REMARK   95  A    between atoms: _249  and  _250
REMARK   96  A    between atoms: _253  and  _255
REMARK   97  A    between atoms: _255  and  _256
REMARK   98  A    between atoms: _255  and  _258
REMARK   99  A    between atoms: _261  and  _263
REMARK  100  A    between atoms: _263  and  _264
REMARK  101  A    between atoms: _263  and  _266
REMARK  102  A    between atoms: _266  and  _267
REMARK  103  A    between atoms: _270  and  _272
REMARK  104  A    between atoms: _272  and  _273
REMARK  105  A    between atoms: _272  and  _275
REMARK  106  A    between atoms: _275  and  _276
REMARK  107  A    between atoms: _282  and  _283
REMARK  108  A    between atoms: _288  and  _290
REMARK  109  A    between atoms: _290  and  _291
REMARK  110  A    between atoms: _290  and  _293
REMARK  111  A    between atoms: _293  and  _294
REMARK  112  A    between atoms: _296  and  _298
REMARK  113  A    between atoms: _298  and  _299
REMARK  114  A    between atoms: _298  and  _301
REMARK  115  A    between atoms: _301  and  _302
REMARK  116  A    between atoms: _308  and  _309
REMARK  117  A    between atoms: _314  and  _316
REMARK  118  A    between atoms: _316  and  _317
REMARK  119  A    between atoms: _316  and  _319
REMARK  120  A    between atoms: _319  and  _320
REMARK  121  A    between atoms: _323  and  _325
REMARK  122  A    between atoms: _325  and  _326
REMARK  123  A    between atoms: _325  and  _328
REMARK  124  A    between atoms: _328  and  _329
REMARK  125  A    between atoms: _329  and  _330
REMARK  126  A    between atoms: _333  and  _335
REMARK  127  A    between atoms: _335  and  _336
REMARK  128  A    between atoms: _335  and  _338
REMARK  129  A    between atoms: _338  and  _339
REMARK  130  A    between atoms: _342  and  _344
REMARK  131  A    between atoms: _344  and  _345
REMARK  132  A    between atoms: _344  and  _347
REMARK  133  A    between atoms: _347  and  _348
REMARK  134  A    between atoms: _353  and  _354
REMARK  135  A    between atoms: _356  and  _358
REMARK  136  A    between atoms: _358  and  _359
REMARK  137  A    between atoms: _358  and  _361
REMARK  138  A    between atoms: _364  and  _366
REMARK  139  A    between atoms: _366  and  _367
REMARK  140  A    between atoms: _366  and  _369
REMARK  141  A    between atoms: _369  and  _370
REMARK  142  A    between atoms: _375  and  _376
REMARK  143  A    between atoms: _378  and  _380
REMARK  144  A    between atoms: _380  and  _381
REMARK  145  A    between atoms: _380  and  _383
REMARK  146  A    between atoms: _383  and  _384
REMARK  147  A    between atoms: _386  and  _388
REMARK  148  A    between atoms: _388  and  _389
REMARK  149  A    between atoms: _388  and  _391
REMARK  150  A    between atoms: _391  and  _392
REMARK  151  A    between atoms: _395  and  _397
REMARK  152  A    between atoms: _397  and  _398
REMARK  153  A    between atoms: _397  and  _400
REMARK  154  A    between atoms: _400  and  _401
REMARK  155  A    between atoms: _403  and  _405
REMARK  156  A    between atoms: _405  and  _406
REMARK  157  A    between atoms: _405  and  _408
REMARK  158  A    between atoms: _408  and  _409
REMARK  159  A    between atoms: _409  and  _410
REMARK  160  A    between atoms: _410  and  _411
REMARK  161  A    between atoms: _411  and  _412
REMARK  162  A    between atoms: _416  and  _418
REMARK  163  A    between atoms: _418  and  _419
REMARK  164  A    between atoms: _418  and  _421
REMARK  165  A    between atoms: _421  and  _422
REMARK  166  A    between atoms: _426  and  _427
REMARK  167  A    between atoms: _432  and  _434
REMARK  168  A    between atoms: _434  and  _435
REMARK  169  A    between atoms: _437  and  _439
REMARK  170  A    between atoms: _439  and  _440
REMARK  171  A    between atoms: _439  and  _442
REMARK  172  A    between atoms: _442  and  _443
REMARK  173  A    between atoms: _449  and  _451
REMARK  174  A    between atoms: _451  and  _452
REMARK  175  A    between atoms: _451  and  _454
REMARK  176  A    between atoms: _454  and  _455
REMARK  177  A    between atoms: _455  and  _456
REMARK  178  A    between atoms: _456  and  _457
REMARK  179  A    between atoms: _466  and  _468
REMARK  180  A    between atoms: _468  and  _469
REMARK  181  A    between atoms: _468  and  _471
REMARK  182  A    between atoms: _474  and  _476
REMARK  183  A    between atoms: _476  and  _477
REMARK  184  A    between atoms: _479  and  _481
REMARK  185  A    between atoms: _481  and  _482
REMARK  186  A    between atoms: _485  and  _487
REMARK  187  A    between atoms: _487  and  _488
REMARK  188  A    between atoms: _487  and  _490
REMARK  189  A    between atoms: _490  and  _491
REMARK  190  A    between atoms: _494  and  _496
REMARK  191  A    between atoms: _496  and  _497
REMARK  192  A    between atoms: _496  and  _499
REMARK  193  A    between atoms: _499  and  _500
REMARK  194  A    between atoms: _506  and  _508
REMARK  195  A    between atoms: _508  and  _509
REMARK  196  A    between atoms: _508  and  _511
REMARK  197  A    between atoms: _511  and  _512
REMARK  198  A    between atoms: _514  and  _516
REMARK  199  A    between atoms: _516  and  _517
REMARK  200  A    between atoms: _516  and  _519
REMARK  201  A    between atoms: _521  and  _523
REMARK  202  A    between atoms: _523  and  _524
REMARK  203  A    between atoms: _523  and  _526
REMARK  204  A    between atoms: _526  and  _527
REMARK  205  A    between atoms: _527  and  _528
REMARK  206  A    between atoms: _528  and  _529
REMARK  207  A    between atoms: _538  and  _540
REMARK  208  A    between atoms: _540  and  _541
REMARK  209  A    between atoms: _540  and  _543
REMARK  210  A    between atoms: _545  and  _547
REMARK  211  A    between atoms: _547  and  _548
REMARK  212  A    between atoms: _547  and  _550
REMARK  213  A    between atoms: _550  and  _551
REMARK  214  A    between atoms: _556  and  _558
REMARK  215  A    between atoms: _558  and  _559
REMARK  216  A    between atoms: _558  and  _561
REMARK  217  A    between atoms: _561  and  _562
REMARK  218  A    between atoms: _565  and  _567
REMARK  219  A    between atoms: _567  and  _568
REMARK  220  A    between atoms: _567  and  _570
REMARK  221  A    between atoms: _570  and  _571
REMARK  222  A    between atoms: _571  and  _572
REMARK  223  A    between atoms: _577  and  _579
REMARK  224  A    between atoms: _579  and  _580
REMARK  225  A    between atoms: _579  and  _582
REMARK  226  A    between atoms: _582  and  _583
REMARK  227  A    between atoms: _586  and  _588
REMARK  228  A    between atoms: _588  and  _589
REMARK  229  A    between atoms: _588  and  _591
REMARK  230  A    between atoms: _591  and  _592
REMARK  231  A    between atoms: _597  and  _598
REMARK  232  A    between atoms: _600  and  _602
REMARK  233  A    between atoms: _602  and  _603
REMARK  234  A    between atoms: _602  and  _605
REMARK  235  A    between atoms: _605  and  _606
REMARK  236  A    between atoms: _608  and  _610
REMARK  237  A    between atoms: _610  and  _611
REMARK  238  A    between atoms: _610  and  _613
REMARK  239  A    between atoms: _613  and  _614
REMARK  240  A    between atoms: _620  and  _622
REMARK  241  A    between atoms: _622  and  _623
REMARK  242  A    between atoms: _622  and  _625
REMARK  243  A    between atoms: _625  and  _626
REMARK                            x       y       z     vdW  Elec       q    Type
REMARK                         _______ _______ _______ _____ _____    ______ ____
ROOT
ATOM      1  O   HOH     1      17.396  -2.017  29.134  0.00  0.00    +0.000 OA
ENDROOT
TORSDOF 0
REMARK  Name = ../refined-set-2016/1m7y/1m7y_pocket.pdb
REMARK  243 active torsions:
REMARK  status: ('A' for Active; 'I' for Inactive)
REMARK    1  A    between atoms: _1  and  _3
REMARK    2  A    between atoms: _3  and  _4
REMARK    3  A    between atoms: _3  and  _6
REMARK    4  A    between atoms: _6  and  _7
REMARK    5  A    between atoms: _12  and  _13
REMARK    6  A    between atoms: _15  and  _17
REMARK    7  A    between atoms: _17  and  _18
REMARK    8  A    between atoms: _17  and  _20
REMARK    9  A    between atoms: _20  and  _21
REMARK   10  A    between atoms: _27  and  _29
REMARK   11  A    between atoms: _29  and  _30
REMARK   12  A    between atoms: _29  and  _32
REMARK   13  A    between atoms: _32  and  _33
REMARK   14  A    between atoms: _43  and  _45
REMARK   15  A    between atoms: _45  and  _46
REMARK   16  A    between atoms: _45  and  _48
REMARK   17  A    between atoms: _48  and  _49
REMARK   18  A    between atoms: _49  and  _50
REMARK   19  A    between atoms: _55  and  _57
REMARK   20  A    between atoms: _57  and  _58
REMARK   21  A    between atoms: _60  and  _62
REMARK   22  A    between atoms: _62  and  _63
REMARK   23  A    between atoms: _62  and  _65
REMARK   24  A    between atoms: _65  and  _66
REMARK   25  A    between atoms: _69  and  _71
REMARK   26  A    between atoms: _71  and  _72
REMARK   27  A    between atoms: _75  and  _77
REMARK   28  A    between atoms: _77  and  _78
REMARK   29  A    between atoms: _77  and  _80
REMARK   30  A    between atoms: _80  and  _81
REMARK   31  A    between atoms: _81  and  _82
REMARK   32  A    between atoms: _85  and  _87
REMARK   33  A    between atoms: _87  and  _88
REMARK   34  A    between atoms: _87  and  _90
REMARK   35  A    between atoms: _90  and  _91
REMARK   36  A    between atoms: _96  and  _98
REMARK   37  A    between atoms: _98  and  _99
REMARK   38  A    between atoms: _98  and  _101
REMARK   39  A    between atoms: _101  and  _102
REMARK   40  A    between atoms: _105  and  _107
REMARK   41  A    between atoms: _107  and  _108
REMARK   42  A    between atoms: _111  and  _113
REMARK   43  A    between atoms: _113  and  _114
REMARK   44  A    between atoms: _116  and  _118
REMARK   45  A    between atoms: _118  and  _119
REMARK   46  A    between atoms: _122  and  _124
REMARK   47  A    between atoms: _124  and  _125
REMARK   48  A    between atoms: _124  and  _127
REMARK   49  A    between atoms: _127  and  _128
REMARK   50  A    between atoms: _131  and  _133
REMARK   51  A    between atoms: _133  and  _134
REMARK   52  A    between atoms: _133  and  _136
REMARK   53  A    between atoms: _136  and  _137
REMARK   54  A    between atoms: _139  and  _141
REMARK   55  A    between atoms: _141  and  _142
REMARK   56  A    between atoms: _145  and  _147
REMARK   57  A    between atoms: _147  and  _148
REMARK   58  A    between atoms: _147  and  _150
REMARK   59  A    between atoms: _150  and  _151
REMARK   60  A    between atoms: _156  and  _158
REMARK   61  A    between atoms: _158  and  _159
REMARK   62  A    between atoms: _158  and  _161
REMARK   63  A    between atoms: _161  and  _162
REMARK   64  A    between atoms: _162  and  _163
REMARK   65  A    between atoms: _166  and  _168
REMARK   66  A    between atoms: _168  and  _169
REMARK   67  A    between atoms: _168  and  _171
REMARK   68  A    between atoms: _171  and  _172
REMARK   69  A    between atoms: _177  and  _178
REMARK   70  A    between atoms: _180  and  _182
REMARK   71  A    between atoms: _182  and  _183
REMARK   72  A    between atoms: _182  and  _185
REMARK   73  A    between atoms: _185  and  _186
REMARK   74  A    between atoms: _191  and  _192
REMARK   75  A    between atoms: _195  and  _196
REMARK   76  A    between atoms: _201  and  _203
REMARK   77  A    between atoms: _203  and  _204
REMARK   78  A    between atoms: _206  and  _208
REMARK   79  A    between atoms: _208  and  _209
REMARK   80  A    between atoms: _208  and  _211
REMARK   81  A    between atoms: _211  and  _212
REMARK   82  A    between atoms: _218  and  _220
REMARK   83  A    between atoms: _220  and  _221
REMARK   84  A    between atoms: _220  and  _223
REMARK   85  A    between atoms: _223  and  _224
REMARK   86  A    between atoms: _224  and  _225
REMARK   87  A    between atoms: _225  and  _226
REMARK   88  A    between atoms: _235  and  _237
REMARK   89  A    between atoms: _237  and  _238
REMARK   90  A    between atoms: _237  and  _240
REMARK   91  A    between atoms: _240  and  _241
REMARK   92  A    between atoms: _244  and  _246
REMARK   93  A    between atoms: _246  and  _247
REMARK   94  A    between atoms: _246  and  _249
REMARK   95  A    between atoms: _249  and  _250
REMARK   96  A    between atoms: _253  and  _255
REMARK   97  A    between atoms: _255  and  _256
REMARK   98  A    between atoms: _255  and  _258
REMARK   99  A    between atoms: _261  and  _263
REMARK  100  A    between atoms: _263  and  _264
REMARK  101  A    between atoms: _263  and  _266
REMARK  102  A    between atoms: _266  and  _267
REMARK  103  A    between atoms: _270  and  _272
REMARK  104  A    between atoms: _272  and  _273
REMARK  105  A    between atoms: _272  and  _275
REMARK  106  A    between atoms: _275  and  _276
REMARK  107  A    between atoms: _282  and  _283
REMARK  108  A    between atoms: _288  and  _290
REMARK  109  A    between atoms: _290  and  _291
REMARK  110  A    between atoms: _290  and  _293
REMARK  111  A    between atoms: _293  and  _294
REMARK  112  A    between atoms: _296  and  _298
REMARK  113  A    between atoms: _298  and  _299
REMARK  114  A    between atoms: _298  and  _301
REMARK  115  A    between atoms: _301  and  _302
REMARK  116  A    between atoms: _308  and  _309
REMARK  117  A    between atoms: _314  and  _316
REMARK  118  A    between atoms: _316  and  _317
REMARK  119  A    between atoms: _316  and  _319
REMARK  120  A    between atoms: _319  and  _320
REMARK  121  A    between atoms: _323  and  _325
REMARK  122  A    between atoms: _325  and  _326
REMARK  123  A    between atoms: _325  and  _328
REMARK  124  A    between atoms: _328  and  _329
REMARK  125  A    between atoms: _329  and  _330
REMARK  126  A    between atoms: _333  and  _335
REMARK  127  A    between atoms: _335  and  _336
REMARK  128  A    between atoms: _335  and  _338
REMARK  129  A    between atoms: _338  and  _339
REMARK  130  A    between atoms: _342  and  _344
REMARK  131  A    between atoms: _344  and  _345
REMARK  132  A    between atoms: _344  and  _347
REMARK  133  A    between atoms: _347  and  _348
REMARK  134  A    between atoms: _353  and  _354
REMARK  135  A    between atoms: _356  and  _358
REMARK  136  A    between atoms: _358  and  _359
REMARK  137  A    between atoms: _358  and  _361
REMARK  138  A    between atoms: _364  and  _366
REMARK  139  A    between atoms: _366  and  _367
REMARK  140  A    between atoms: _366  and  _369
REMARK  141  A    between atoms: _369  and  _370
REMARK  142  A    between atoms: _375  and  _376
REMARK  143  A    between atoms: _378  and  _380
REMARK  144  A    between atoms: _380  and  _381
REMARK  145  A    between atoms: _380  and  _383
REMARK  146  A    between atoms: _383  and  _384
REMARK  147  A    between atoms: _386  and  _388
REMARK  148  A    between atoms: _388  and  _389
REMARK  149  A    between atoms: _388  and  _391
REMARK  150  A    between atoms: _391  and  _392
REMARK  151  A    between atoms: _395  and  _397
REMARK  152  A    between atoms: _397  and  _398
REMARK  153  A    between atoms: _397  and  _400
REMARK  154  A    between atoms: _400  and  _401
REMARK  155  A    between atoms: _403  and  _405
REMARK  156  A    between atoms: _405  and  _406
REMARK  157  A    between atoms: _405  and  _408
REMARK  158  A    between atoms: _408  and  _409
REMARK  159  A    between atoms: _409  and  _410
REMARK  160  A    between atoms: _410  and  _411
REMARK  161  A    between atoms: _411  and  _412
REMARK  162  A    between atoms: _416  and  _418
REMARK  163  A    between atoms: _418  and  _419
REMARK  164  A    between atoms: _418  and  _421
REMARK  165  A    between atoms: _421  and  _422
REMARK  166  A    between atoms: _426  and  _427
REMARK  167  A    between atoms: _432  and  _434
REMARK  168  A    between atoms: _434  and  _435
REMARK  169  A    between atoms: _437  and  _439
REMARK  170  A    between atoms: _439  and  _440
REMARK  171  A    between atoms: _439  and  _442
REMARK  172  A    between atoms: _442  and  _443
REMARK  173  A    between atoms: _449  and  _451
REMARK  174  A    between atoms: _451  and  _452
REMARK  175  A    between atoms: _451  and  _454
REMARK  176  A    between atoms: _454  and  _455
REMARK  177  A    between atoms: _455  and  _456
REMARK  178  A    between atoms: _456  and  _457
REMARK  179  A    between atoms: _466  and  _468
REMARK  180  A    between atoms: _468  and  _469
REMARK  181  A    between atoms: _468  and  _471
REMARK  182  A    between atoms: _474  and  _476
REMARK  183  A    between atoms: _476  and  _477
REMARK  184  A    between atoms: _479  and  _481
REMARK  185  A    between atoms: _481  and  _482
REMARK  186  A    between atoms: _485  and  _487
REMARK  187  A    between atoms: _487  and  _488
REMARK  188  A    between atoms: _487  and  _490
REMARK  189  A    between atoms: _490  and  _491
REMARK  190  A    between atoms: _494  and  _496
REMARK  191  A    between atoms: _496  and  _497
REMARK  192  A    between atoms: _496  and  _499
REMARK  193  A    between atoms: _499  and  _500
REMARK  194  A    between atoms: _506  and  _508
REMARK  195  A    between atoms: _508  and  _509
REMARK  196  A    between atoms: _508  and  _511
REMARK  197  A    between atoms: _511  and  _512
REMARK  198  A    between atoms: _514  and  _516
REMARK  199  A    between atoms: _516  and  _517
REMARK  200  A    between atoms: _516  and  _519
REMARK  201  A    between atoms: _521  and  _523
REMARK  202  A    between atoms: _523  and  _524
REMARK  203  A    between atoms: _523  and  _526
REMARK  204  A    between atoms: _526  and  _527
REMARK  205  A    between atoms: _527  and  _528
REMARK  206  A    between atoms: _528  and  _529
REMARK  207  A    between atoms: _538  and  _540
REMARK  208  A    between atoms: _540  and  _541
REMARK  209  A    between atoms: _540  and  _543
REMARK  210  A    between atoms: _545  and  _547
REMARK  211  A    between atoms: _547  and  _548
REMARK  212  A    between atoms: _547  and  _550
REMARK  213  A    between atoms: _550  and  _551
REMARK  214  A    between atoms: _556  and  _558
REMARK  215  A    between atoms: _558  and  _559
REMARK  216  A    between atoms: _558  and  _561
REMARK  217  A    between atoms: _561  and  _562
REMARK  218  A    between atoms: _565  and  _567
REMARK  219  A    between atoms: _567  and  _568
REMARK  220  A    between atoms: _567  and  _570
REMARK  221  A    between atoms: _570  and  _571
REMARK  222  A    between atoms: _571  and  _572
REMARK  223  A    between atoms: _577  and  _579
REMARK  224  A    between atoms: _579  and  _580
REMARK  225  A    between atoms: _579  and  _582
REMARK  226  A    between atoms: _582  and  _583
REMARK  227  A    between atoms: _586  and  _588
REMARK  228  A    between atoms: _588  and  _589
REMARK  229  A    between atoms: _588  and  _591
REMARK  230  A    between atoms: _591  and  _592
REMARK  231  A    between atoms: _597  and  _598
REMARK  232  A    between atoms: _600  and  _602
REMARK  233  A    between atoms: _602  and  _603
REMARK  234  A    between atoms: _602  and  _605
REMARK  235  A    between atoms: _605  and  _606
REMARK  236  A    between atoms: _608  and  _610
REMARK  237  A    between atoms: _610  and  _611
REMARK  238  A    between atoms: _610  and  _613
REMARK  239  A    between atoms: _613  and  _614
REMARK  240  A    between atoms: _620  and  _622
REMARK  241  A    between atoms: _622  and  _623
REMARK  242  A    between atoms: _622  and  _625
REMARK  243  A    between atoms: _625  and  _626
REMARK                            x       y       z     vdW  Elec       q    Type
REMARK                         _______ _______ _______ _____ _____    ______ ____
ROOT
ATOM      1  O   HOH     1      14.505  -9.359  28.544  0.00  0.00    +0.000 OA
ENDROOT
TORSDOF 0
