REMARK  Name = ../refined-set-2016/1h0a/1h0a_pocket.pdb
REMARK  138 active torsions:
REMARK  status: ('A' for Active; 'I' for Inactive)
REMARK    1  A    between atoms: _1  and  _5
REMARK    2  A    between atoms: _5  and  _6
REMARK    3  A    between atoms: _5  and  _8
REMARK    4  A    between atoms: _9  and  _10
REMARK    5  A    between atoms: _12  and  _14
REMARK    6  A    between atoms: _14  and  _15
REMARK    7  A    between atoms: _14  and  _17
REMARK    8  A    between atoms: _17  and  _18
REMARK    9  A    between atoms: _21  and  _23
REMARK   10  A    between atoms: _23  and  _24
REMARK   11  A    between atoms: _23  and  _26
REMARK   12  A    between atoms: _26  and  _27
REMARK   13  A    between atoms: _29  and  _31
REMARK   14  A    between atoms: _31  and  _32
REMARK   15  A    between atoms: _31  and  _34
REMARK   16  A    between atoms: _34  and  _35
REMARK   17  A    between atoms: _37  and  _39
REMARK   18  A    between atoms: _39  and  _40
REMARK   19  A    between atoms: _39  and  _42
REMARK   20  A    between atoms: _42  and  _43
REMARK   21  A    between atoms: _46  and  _48
REMARK   22  A    between atoms: _48  and  _49
REMARK   23  A    between atoms: _48  and  _51
REMARK   24  A    between atoms: _51  and  _52
REMARK   25  A    between atoms: _52  and  _53
REMARK   26  A    between atoms: _53  and  _54
REMARK   27  A    between atoms: _63  and  _65
REMARK   28  A    between atoms: _65  and  _66
REMARK   29  A    between atoms: _65  and  _68
REMARK   30  A    between atoms: _68  and  _69
REMARK   31  A    between atoms: _69  and  _70
REMARK   32  A    between atoms: _70  and  _71
REMARK   33  A    between atoms: _80  and  _82
REMARK   34  A    between atoms: _82  and  _83
REMARK   35  A    between atoms: _82  and  _85
REMARK   36  A    between atoms: _85  and  _86
REMARK   37  A    between atoms: _86  and  _87
REMARK   38  A    between atoms: _92  and  _94
REMARK   39  A    between atoms: _94  and  _95
REMARK   40  A    between atoms: _94  and  _97
REMARK   41  A    between atoms: _97  and  _98
REMARK   42  A    between atoms: _98  and  _99
REMARK   43  A    between atoms: _99  and  _100
REMARK   44  A    between atoms: _100  and  _101
REMARK   45  A    between atoms: _105  and  _107
REMARK   46  A    between atoms: _107  and  _108
REMARK   47  A    between atoms: _107  and  _110
REMARK   48  A    between atoms: _110  and  _111
REMARK   49  A    between atoms: _116  and  _118
REMARK   50  A    between atoms: _118  and  _119
REMARK   51  A    between atoms: _118  and  _121
REMARK   52  A    between atoms: _121  and  _122
REMARK   53  A    between atoms: _127  and  _129
REMARK   54  A    between atoms: _129  and  _130
REMARK   55  A    between atoms: _129  and  _132
REMARK   56  A    between atoms: _132  and  _133
REMARK   57  A    between atoms: _138  and  _139
REMARK   58  A    between atoms: _141  and  _143
REMARK   59  A    between atoms: _143  and  _144
REMARK   60  A    between atoms: _143  and  _146
REMARK   61  A    between atoms: _146  and  _147
REMARK   62  A    between atoms: _147  and  _148
REMARK   63  A    between atoms: _148  and  _149
REMARK   64  A    between atoms: _158  and  _160
REMARK   65  A    between atoms: _160  and  _161
REMARK   66  A    between atoms: _160  and  _163
REMARK   67  A    between atoms: _163  and  _164
REMARK   68  A    between atoms: _164  and  _165
REMARK   69  A    between atoms: _168  and  _170
REMARK   70  A    between atoms: _170  and  _171
REMARK   71  A    between atoms: _170  and  _173
REMARK   72  A    between atoms: _173  and  _174
REMARK   73  A    between atoms: _177  and  _179
REMARK   74  A    between atoms: _179  and  _180
REMARK   75  A    between atoms: _179  and  _182
REMARK   76  A    between atoms: _182  and  _183
REMARK   77  A    between atoms: _185  and  _187
REMARK   78  A    between atoms: _187  and  _188
REMARK   79  A    between atoms: _187  and  _190
REMARK   80  A    between atoms: _190  and  _191
REMARK   81  A    between atoms: _196  and  _198
REMARK   82  A    between atoms: _198  and  _199
REMARK   83  A    between atoms: _198  and  _201
REMARK   84  A    between atoms: _201  and  _202
REMARK   85  A    between atoms: _205  and  _207
REMARK   86  A    between atoms: _207  and  _208
REMARK   87  A    between atoms: _207  and  _210
REMARK   88  A    between atoms: _210  and  _211
REMARK   89  A    between atoms: _211  and  _212
REMARK   90  A    between atoms: _214  and  _216
REMARK   91  A    between atoms: _216  and  _217
REMARK   92  A    between atoms: _216  and  _219
REMARK   93  A    between atoms: _219  and  _220
REMARK   94  A    between atoms: _220  and  _221
REMARK   95  A    between atoms: _221  and  _222
REMARK   96  A    between atoms: _222  and  _223
REMARK   97  A    between atoms: _227  and  _229
REMARK   98  A    between atoms: _229  and  _230
REMARK   99  A    between atoms: _229  and  _232
REMARK  100  A    between atoms: _232  and  _233
REMARK  101  A    between atoms: _233  and  _234
REMARK  102  A    between atoms: _234  and  _235
REMARK  103  A    between atoms: _244  and  _246
REMARK  104  A    between atoms: _246  and  _247
REMARK  105  A    between atoms: _246  and  _249
REMARK  106  A    between atoms: _249  and  _250
REMARK  107  A    between atoms: _253  and  _255
REMARK  108  A    between atoms: _255  and  _256
REMARK  109  A    between atoms: _255  and  _258
REMARK  110  A    between atoms: _258  and  _259
REMARK  111  A    between atoms: _264  and  _266
REMARK  112  A    between atoms: _266  and  _267
REMARK  113  A    between atoms: _266  and  _269
REMARK  114  A    between atoms: _269  and  _270
REMARK  115  A    between atoms: _270  and  _271
REMARK  116  A    between atoms: _271  and  _272
REMARK  117  A    between atoms: _272  and  _273
REMARK  118  A    between atoms: _277  and  _279
REMARK  119  A    between atoms: _279  and  _280
REMARK  120  A    between atoms: _279  and  _282
REMARK  121  A    between atoms: _282  and  _283
REMARK  122  A    between atoms: _288  and  _290
REMARK  123  A    between atoms: _290  and  _291
REMARK  124  A    between atoms: _290  and  _293
REMARK  125  A    between atoms: _293  and  _294
REMARK  126  A    between atoms: _294  and  _295
REMARK  127  A    between atoms: _295  and  _296
REMARK  128  A    between atoms: _305  and  _307
REMARK  129  A    between atoms: _307  and  _308
REMARK  130  A    between atoms: _307  and  _310
REMARK  131  A    between atoms: _310  and  _311
REMARK  132  A    between atoms: _316  and  _318
REMARK  133  A    between atoms: _318  and  _319
REMARK  134  A    between atoms: _318  and  _321
REMARK  135  A    between atoms: _321  and  _322
REMARK  136  A    between atoms: _322  and  _323
REMARK  137  A    between atoms: _323  and  _324
REMARK  138  A    between atoms: _324  and  _325
REMARK                            x       y       z     vdW  Elec       q    Type
REMARK                         _______ _______ _______ _____ _____    ______ ____
ROOT
ATOM      1  CA  MET A   1      30.022  43.243   8.576  0.00  0.00    -0.009 C 
ENDROOT
BRANCH   1   2
ATOM      2  N   MET A   1      29.891  41.953   7.818  0.00  0.00    +0.386 N 
ATOM      3  H1  MET A   1      29.217  41.331   8.308  0.00  0.00    -0.089 HD
ATOM      4  H2  MET A   1      30.819  41.487   7.766  0.00  0.00    -0.089 HD
ATOM      5  H3  MET A   1      29.546  42.151   6.857  0.00  0.00    -0.089 HD
ENDBRANCH   1   2
BRANCH   1   6
ATOM      6  C   MET A   1      28.629  44.022   8.700  0.00  0.00    +0.165 C 
ATOM      7  O   MET A   1      27.612  43.537   9.336  0.00  0.00    -0.222 OA
ENDBRANCH   1   6
BRANCH   1   8
ATOM      8  CB  MET A   1      31.111  44.118   7.931  0.00  0.00    -0.039 C 
ATOM      9  CG  MET A   1      31.479  45.406   8.711  0.00  0.00    +0.024 C 
BRANCH   9  10
ATOM     10  SD  MET A   1      32.636  46.528   7.898  0.00  0.00    -0.113 S 
ATOM     11  CE  MET A   1      32.672  45.836   6.142  0.00  0.00    +0.074 C 
ENDBRANCH   9  10
ENDBRANCH   1   8
TORSDOF 4
REMARK  Name = ../refined-set-2016/1h0a/1h0a_pocket.pdb
REMARK  138 active torsions:
REMARK  status: ('A' for Active; 'I' for Inactive)
REMARK    1  A    between atoms: _1  and  _5
REMARK    2  A    between atoms: _5  and  _6
REMARK    3  A    between atoms: _5  and  _8
REMARK    4  A    between atoms: _9  and  _10
REMARK    5  A    between atoms: _12  and  _14
REMARK    6  A    between atoms: _14  and  _15
REMARK    7  A    between atoms: _14  and  _17
REMARK    8  A    between atoms: _17  and  _18
REMARK    9  A    between atoms: _21  and  _23
REMARK   10  A    between atoms: _23  and  _24
REMARK   11  A    between atoms: _23  and  _26
REMARK   12  A    between atoms: _26  and  _27
REMARK   13  A    between atoms: _29  and  _31
REMARK   14  A    between atoms: _31  and  _32
REMARK   15  A    between atoms: _31  and  _34
REMARK   16  A    between atoms: _34  and  _35
REMARK   17  A    between atoms: _37  and  _39
REMARK   18  A    between atoms: _39  and  _40
REMARK   19  A    between atoms: _39  and  _42
REMARK   20  A    between atoms: _42  and  _43
REMARK   21  A    between atoms: _46  and  _48
REMARK   22  A    between atoms: _48  and  _49
REMARK   23  A    between atoms: _48  and  _51
REMARK   24  A    between atoms: _51  and  _52
REMARK   25  A    between atoms: _52  and  _53
REMARK   26  A    between atoms: _53  and  _54
REMARK   27  A    between atoms: _63  and  _65
REMARK   28  A    between atoms: _65  and  _66
REMARK   29  A    between atoms: _65  and  _68
REMARK   30  A    between atoms: _68  and  _69
REMARK   31  A    between atoms: _69  and  _70
REMARK   32  A    between atoms: _70  and  _71
REMARK   33  A    between atoms: _80  and  _82
REMARK   34  A    between atoms: _82  and  _83
REMARK   35  A    between atoms: _82  and  _85
REMARK   36  A    between atoms: _85  and  _86
REMARK   37  A    between atoms: _86  and  _87
REMARK   38  A    between atoms: _92  and  _94
REMARK   39  A    between atoms: _94  and  _95
REMARK   40  A    between atoms: _94  and  _97
REMARK   41  A    between atoms: _97  and  _98
REMARK   42  A    between atoms: _98  and  _99
REMARK   43  A    between atoms: _99  and  _100
REMARK   44  A    between atoms: _100  and  _101
REMARK   45  A    between atoms: _105  and  _107
REMARK   46  A    between atoms: _107  and  _108
REMARK   47  A    between atoms: _107  and  _110
REMARK   48  A    between atoms: _110  and  _111
REMARK   49  A    between atoms: _116  and  _118
REMARK   50  A    between atoms: _118  and  _119
REMARK   51  A    between atoms: _118  and  _121
REMARK   52  A    between atoms: _121  and  _122
REMARK   53  A    between atoms: _127  and  _129
REMARK   54  A    between atoms: _129  and  _130
REMARK   55  A    between atoms: _129  and  _132
REMARK   56  A    between atoms: _132  and  _133
REMARK   57  A    between atoms: _138  and  _139
REMARK   58  A    between atoms: _141  and  _143
REMARK   59  A    between atoms: _143  and  _144
REMARK   60  A    between atoms: _143  and  _146
REMARK   61  A    between atoms: _146  and  _147
REMARK   62  A    between atoms: _147  and  _148
REMARK   63  A    between atoms: _148  and  _149
REMARK   64  A    between atoms: _158  and  _160
REMARK   65  A    between atoms: _160  and  _161
REMARK   66  A    between atoms: _160  and  _163
REMARK   67  A    between atoms: _163  and  _164
REMARK   68  A    between atoms: _164  and  _165
REMARK   69  A    between atoms: _168  and  _170
REMARK   70  A    between atoms: _170  and  _171
REMARK   71  A    between atoms: _170  and  _173
REMARK   72  A    between atoms: _173  and  _174
REMARK   73  A    between atoms: _177  and  _179
REMARK   74  A    between atoms: _179  and  _180
REMARK   75  A    between atoms: _179  and  _182
REMARK   76  A    between atoms: _182  and  _183
REMARK   77  A    between atoms: _185  and  _187
REMARK   78  A    between atoms: _187  and  _188
REMARK   79  A    between atoms: _187  and  _190
REMARK   80  A    between atoms: _190  and  _191
REMARK   81  A    between atoms: _196  and  _198
REMARK   82  A    between atoms: _198  and  _199
REMARK   83  A    between atoms: _198  and  _201
REMARK   84  A    between atoms: _201  and  _202
REMARK   85  A    between atoms: _205  and  _207
REMARK   86  A    between atoms: _207  and  _208
REMARK   87  A    between atoms: _207  and  _210
REMARK   88  A    between atoms: _210  and  _211
REMARK   89  A    between atoms: _211  and  _212
REMARK   90  A    between atoms: _214  and  _216
REMARK   91  A    between atoms: _216  and  _217
REMARK   92  A    between atoms: _216  and  _219
REMARK   93  A    between atoms: _219  and  _220
REMARK   94  A    between atoms: _220  and  _221
REMARK   95  A    between atoms: _221  and  _222
REMARK   96  A    between atoms: _222  and  _223
REMARK   97  A    between atoms: _227  and  _229
REMARK   98  A    between atoms: _229  and  _230
REMARK   99  A    between atoms: _229  and  _232
REMARK  100  A    between atoms: _232  and  _233
REMARK  101  A    between atoms: _233  and  _234
REMARK  102  A    between atoms: _234  and  _235
REMARK  103  A    between atoms: _244  and  _246
REMARK  104  A    between atoms: _246  and  _247
REMARK  105  A    between atoms: _246  and  _249
REMARK  106  A    between atoms: _249  and  _250
REMARK  107  A    between atoms: _253  and  _255
REMARK  108  A    between atoms: _255  and  _256
REMARK  109  A    between atoms: _255  and  _258
REMARK  110  A    between atoms: _258  and  _259
REMARK  111  A    between atoms: _264  and  _266
REMARK  112  A    between atoms: _266  and  _267
REMARK  113  A    between atoms: _266  and  _269
REMARK  114  A    between atoms: _269  and  _270
REMARK  115  A    between atoms: _270  and  _271
REMARK  116  A    between atoms: _271  and  _272
REMARK  117  A    between atoms: _272  and  _273
REMARK  118  A    between atoms: _277  and  _279
REMARK  119  A    between atoms: _279  and  _280
REMARK  120  A    between atoms: _279  and  _282
REMARK  121  A    between atoms: _282  and  _283
REMARK  122  A    between atoms: _288  and  _290
REMARK  123  A    between atoms: _290  and  _291
REMARK  124  A    between atoms: _290  and  _293
REMARK  125  A    between atoms: _293  and  _294
REMARK  126  A    between atoms: _294  and  _295
REMARK  127  A    between atoms: _295  and  _296
REMARK  128  A    between atoms: _305  and  _307
REMARK  129  A    between atoms: _307  and  _308
REMARK  130  A    between atoms: _307  and  _310
REMARK  131  A    between atoms: _310  and  _311
REMARK  132  A    between atoms: _316  and  _318
REMARK  133  A    between atoms: _318  and  _319
REMARK  134  A    between atoms: _318  and  _321
REMARK  135  A    between atoms: _321  and  _322
REMARK  136  A    between atoms: _322  and  _323
REMARK  137  A    between atoms: _323  and  _324
REMARK  138  A    between atoms: _324  and  _325
REMARK                            x       y       z     vdW  Elec       q    Type
REMARK                         _______ _______ _______ _____ _____    ______ ____
ROOT
ATOM      1  CA  ARG A   5      21.780  41.871   3.265  0.00  0.00    +0.149 C 
ENDROOT
BRANCH   1   2
ATOM      2  C   ARG A   5      20.675  41.179   4.078  0.00  0.00    +0.241 C 
ATOM      3  N   ARG A   6      20.980  40.944   5.347  0.00  0.00    -0.297 N 
ATOM      4  H   ARG A   6      21.927  41.198   5.693  0.00  0.00    +0.150 HD
ATOM      5  O   ARG A   5      19.693  40.776   3.496  0.00  0.00    -0.273 OA
BRANCH   3   6
ATOM      6  CA  ARG A   6      20.009  40.329   6.289  0.00  0.00    +0.149 C 
BRANCH   6   7
ATOM      7  C   ARG A   6      18.698  41.121   6.367  0.00  0.00    +0.241 C 
ATOM      8  N   GLN A   7      18.846  42.457   6.463  0.00  0.00    -0.298 N 
ATOM      9  H   GLN A   7      19.803  42.858   6.527  0.00  0.00    +0.150 HD
ATOM     10  O   ARG A   6      17.609  40.568   6.205  0.00  0.00    -0.273 OA
BRANCH   8  11
ATOM     11  CA  GLN A   7      17.709  43.345   6.479  0.00  0.00    +0.137 C 
BRANCH  11  12
ATOM     12  C   GLN A   7      16.924  43.417   5.187  0.00  0.00    +0.227 C 
ATOM     13  O   GLN A   7      15.714  43.450   5.189  0.00  0.00    -0.286 OA
ENDBRANCH  11  12
BRANCH  11  14
ATOM     14  CB  GLN A   7      18.199  44.725   6.820  0.00  0.00    +0.037 C 
BRANCH  14  15
ATOM     15  CG  GLN A   7      18.651  44.818   8.181  0.00  0.00    +0.087 C 
BRANCH  15  16
ATOM     16  CD  GLN A   7      19.104  46.222   8.461  0.00  0.00    +0.219 C 
ATOM     17  NE2 GLN A   7      20.408  46.415   8.553  0.00  0.00    -0.329 N 
ATOM     18 HE21 GLN A   7      21.049  45.601   8.644  0.00  0.00    +0.145 HD
ATOM     19 HE22 GLN A   7      20.793  47.381   8.534  0.00  0.00    +0.145 HD
ATOM     20  OE1 GLN A   7      18.295  47.143   8.351  0.00  0.00    -0.275 OA
ENDBRANCH  15  16
ENDBRANCH  14  15
ENDBRANCH  11  14
ENDBRANCH   8  11
ENDBRANCH   6   7
BRANCH   6  21
ATOM     21  CB  ARG A   6      20.685  40.106   7.653  0.00  0.00    +0.033 C 
BRANCH  21  22
ATOM     22  CG  ARG A   6      19.891  39.399   8.720  0.00  0.00    +0.045 C 
BRANCH  22  23
ATOM     23  CD  ARG A   6      20.667  39.254  10.094  0.00  0.00    +0.174 C 
BRANCH  23  24
ATOM     24  NE  ARG A   6      21.928  38.798   9.817  0.00  0.00    -0.265 N 
ATOM     25  CZ  ARG A   6      23.075  39.372  10.165  0.00  0.00    +0.342 C 
ATOM     26  NH2 ARG A   6      23.125  40.397  11.003  0.00  0.00    -0.292 N 
ATOM     27 HH21 ARG A   6      22.248  40.778  11.412  0.00  0.00    +0.255 HD
ATOM     28 HH22 ARG A   6      24.042  40.821  11.252  0.00  0.00    +0.255 HD
ATOM     29  NH1 ARG A   6      24.159  38.872   9.628  0.00  0.00    -0.292 N 
ATOM     30 HH11 ARG A   6      25.089  39.277   9.860  0.00  0.00    +0.255 HD
ATOM     31 HH12 ARG A   6      24.091  38.070   8.969  0.00  0.00    +0.255 HD
ATOM     32  HE  ARG A   6      21.995  37.911   9.279  0.00  0.00    +0.259 HD
ENDBRANCH  23  24
ENDBRANCH  22  23
ENDBRANCH  21  22
ENDBRANCH   6  21
ENDBRANCH   3   6
ENDBRANCH   1   2
BRANCH   1  35
ATOM     33  C   LEU A   4      21.729  43.976   4.440  0.00  0.00    +0.241 C 
ATOM     34  O   LEU A   4      20.538  44.159   4.179  0.00  0.00    -0.273 OA
ATOM     35  N   ARG A   5      22.423  42.904   4.033  0.00  0.00    -0.297 N 
ATOM     36  H   ARG A   5      23.431  42.818   4.273  0.00  0.00    +0.150 HD
BRANCH  33  37
ATOM     37  CA  LEU A   4      22.471  45.020   5.245  0.00  0.00    +0.149 C 
BRANCH  37  40
ATOM     38  C   SER A   3      22.696  43.758   7.292  0.00  0.00    +0.243 C 
ATOM     39  O   SER A   3      21.478  43.524   7.312  0.00  0.00    -0.273 OA
ATOM     40  N   LEU A   4      23.264  44.452   6.303  0.00  0.00    -0.297 N 
ATOM     41  H   LEU A   4      24.296  44.584   6.297  0.00  0.00    +0.150 HD
BRANCH  38  42
ATOM     42  CA  SER A   3      23.656  43.166   8.282  0.00  0.00    +0.178 C 
BRANCH  42  44
ATOM     43  C   SER A   2      24.842  41.600   6.791  0.00  0.00    +0.243 C 
ATOM     44  N   SER A   3      24.863  42.572   7.708  0.00  0.00    -0.295 N 
ATOM     45  H   SER A   3      25.787  42.925   8.031  0.00  0.00    +0.150 HD
ATOM     46  O   SER A   2      23.820  41.081   6.401  0.00  0.00    -0.273 OA
BRANCH  43  47
ATOM     47  CA  SER A   2      26.145  41.141   6.205  0.00  0.00    +0.178 C 
BRANCH  47  49
ATOM     48  C   THR A   1      26.483  43.227   4.990  0.00  0.00    +0.241 C 
ATOM     49  N   SER A   2      26.934  42.357   5.923  0.00  0.00    -0.295 N 
ATOM     50  H   SER A   2      27.821  42.542   6.433  0.00  0.00    +0.150 HD
ATOM     51  O   THR A   1      25.472  43.027   4.341  0.00  0.00    -0.274 OA
BRANCH  48  52
ATOM     52  CA  THR A   1      27.243  44.563   4.763  0.00  0.00    +0.172 C 
BRANCH  52  53
ATOM     53  N   THR A   1      27.576  45.114   6.029  0.00  0.00    -0.236 NA
ATOM     54  H   THR A   1      28.578  45.104   6.308  0.00  0.00    +0.142 HD
ENDBRANCH  52  53
BRANCH  52  55
ATOM     55  CB  THR A   1      28.535  44.454   3.901  0.00  0.00    +0.135 C 
ATOM     56  CG2 THR A   1      29.282  43.194   4.175  0.00  0.00    +0.034 C 
BRANCH  55  57
ATOM     57  OG1 THR A   1      28.195  44.398   2.510  0.00  0.00    -0.383 OA
ATOM     58  HG1 THR A   1      29.023  44.329   1.972  0.00  0.00    +0.210 HD
ENDBRANCH  55  57
ENDBRANCH  52  55
ENDBRANCH  48  52
ENDBRANCH  47  49
BRANCH  47  59
ATOM     59  CB  SER A   2      26.877  40.082   7.128  0.00  0.00    +0.166 C 
BRANCH  59  60
ATOM     60  OG  SER A   2      26.945  40.512   8.519  0.00  0.00    -0.380 OA
ATOM     61  H   SER A   2      27.409  39.821   9.055  0.00  0.00    +0.211 HD
ENDBRANCH  59  60
ENDBRANCH  47  59
ENDBRANCH  43  47
ENDBRANCH  42  44
BRANCH  42  62
ATOM     62  CB  SER A   3      24.071  44.206   9.292  0.00  0.00    +0.166 C 
BRANCH  62  63
ATOM     63  OG  SER A   3      22.923  44.718   9.886  0.00  0.00    -0.380 OA
ATOM     64  H   SER A   3      22.430  43.986  10.334  0.00  0.00    +0.211 HD
ENDBRANCH  62  63
ENDBRANCH  42  62
ENDBRANCH  38  42
ENDBRANCH  37  40
BRANCH  37  65
ATOM     65  CB  LEU A   4      23.382  45.767   4.229  0.00  0.00    +0.029 C 
BRANCH  65  66
ATOM     66  CG  LEU A   4      23.359  47.287   4.293  0.00  0.00    +0.002 C 
ATOM     67  CD2 LEU A   4      21.944  47.678   4.178  0.00  0.00    +0.000 C 
ATOM     68  CD1 LEU A   4      24.120  47.823   3.036  0.00  0.00    +0.000 C 
ENDBRANCH  65  66
ENDBRANCH  37  65
ENDBRANCH  33  37
ENDBRANCH   1  35
BRANCH   1  69
ATOM     69  CB  ARG A   5      22.788  40.767   2.832  0.00  0.00    +0.033 C 
BRANCH  69  70
ATOM     70  CG  ARG A   5      23.681  41.113   1.713  0.00  0.00    +0.045 C 
BRANCH  70  71
ATOM     71  CD  ARG A   5      24.491  40.005   1.242  0.00  0.00    +0.174 C 
BRANCH  71  72
ATOM     72  NE  ARG A   5      23.698  39.036   0.531  0.00  0.00    -0.265 N 
ATOM     73  CZ  ARG A   5      24.078  37.745   0.432  0.00  0.00    +0.342 C 
ATOM     74  NH2 ARG A   5      25.185  37.374   1.057  0.00  0.00    -0.292 N 
ATOM     75 HH21 ARG A   5      25.732  38.070   1.603  0.00  0.00    +0.255 HD
ATOM     76 HH22 ARG A   5      25.507  36.387   1.002  0.00  0.00    +0.255 HD
ATOM     77  NH1 ARG A   5      23.368  36.834  -0.188  0.00  0.00    -0.292 N 
ATOM     78 HH11 ARG A   5      23.708  35.852  -0.234  0.00  0.00    +0.255 HD
ATOM     79 HH12 ARG A   5      22.465  37.093  -0.633  0.00  0.00    +0.255 HD
ATOM     80  HE  ARG A   5      22.810  39.339   0.082  0.00  0.00    +0.259 HD
ENDBRANCH  71  72
ENDBRANCH  70  71
ENDBRANCH  69  70
ENDBRANCH   1  69
TORSDOF 33
REMARK  Name = ../refined-set-2016/1h0a/1h0a_pocket.pdb
REMARK  138 active torsions:
REMARK  status: ('A' for Active; 'I' for Inactive)
REMARK    1  A    between atoms: _1  and  _5
REMARK    2  A    between atoms: _5  and  _6
REMARK    3  A    between atoms: _5  and  _8
REMARK    4  A    between atoms: _9  and  _10
REMARK    5  A    between atoms: _12  and  _14
REMARK    6  A    between atoms: _14  and  _15
REMARK    7  A    between atoms: _14  and  _17
REMARK    8  A    between atoms: _17  and  _18
REMARK    9  A    between atoms: _21  and  _23
REMARK   10  A    between atoms: _23  and  _24
REMARK   11  A    between atoms: _23  and  _26
REMARK   12  A    between atoms: _26  and  _27
REMARK   13  A    between atoms: _29  and  _31
REMARK   14  A    between atoms: _31  and  _32
REMARK   15  A    between atoms: _31  and  _34
REMARK   16  A    between atoms: _34  and  _35
REMARK   17  A    between atoms: _37  and  _39
REMARK   18  A    between atoms: _39  and  _40
REMARK   19  A    between atoms: _39  and  _42
REMARK   20  A    between atoms: _42  and  _43
REMARK   21  A    between atoms: _46  and  _48
REMARK   22  A    between atoms: _48  and  _49
REMARK   23  A    between atoms: _48  and  _51
REMARK   24  A    between atoms: _51  and  _52
REMARK   25  A    between atoms: _52  and  _53
REMARK   26  A    between atoms: _53  and  _54
REMARK   27  A    between atoms: _63  and  _65
REMARK   28  A    between atoms: _65  and  _66
REMARK   29  A    between atoms: _65  and  _68
REMARK   30  A    between atoms: _68  and  _69
REMARK   31  A    between atoms: _69  and  _70
REMARK   32  A    between atoms: _70  and  _71
REMARK   33  A    between atoms: _80  and  _82
REMARK   34  A    between atoms: _82  and  _83
REMARK   35  A    between atoms: _82  and  _85
REMARK   36  A    between atoms: _85  and  _86
REMARK   37  A    between atoms: _86  and  _87
REMARK   38  A    between atoms: _92  and  _94
REMARK   39  A    between atoms: _94  and  _95
REMARK   40  A    between atoms: _94  and  _97
REMARK   41  A    between atoms: _97  and  _98
REMARK   42  A    between atoms: _98  and  _99
REMARK   43  A    between atoms: _99  and  _100
REMARK   44  A    between atoms: _100  and  _101
REMARK   45  A    between atoms: _105  and  _107
REMARK   46  A    between atoms: _107  and  _108
REMARK   47  A    between atoms: _107  and  _110
REMARK   48  A    between atoms: _110  and  _111
REMARK   49  A    between atoms: _116  and  _118
REMARK   50  A    between atoms: _118  and  _119
REMARK   51  A    between atoms: _118  and  _121
REMARK   52  A    between atoms: _121  and  _122
REMARK   53  A    between atoms: _127  and  _129
REMARK   54  A    between atoms: _129  and  _130
REMARK   55  A    between atoms: _129  and  _132
REMARK   56  A    between atoms: _132  and  _133
REMARK   57  A    between atoms: _138  and  _139
REMARK   58  A    between atoms: _141  and  _143
REMARK   59  A    between atoms: _143  and  _144
REMARK   60  A    between atoms: _143  and  _146
REMARK   61  A    between atoms: _146  and  _147
REMARK   62  A    between atoms: _147  and  _148
REMARK   63  A    between atoms: _148  and  _149
REMARK   64  A    between atoms: _158  and  _160
REMARK   65  A    between atoms: _160  and  _161
REMARK   66  A    between atoms: _160  and  _163
REMARK   67  A    between atoms: _163  and  _164
REMARK   68  A    between atoms: _164  and  _165
REMARK   69  A    between atoms: _168  and  _170
REMARK   70  A    between atoms: _170  and  _171
REMARK   71  A    between atoms: _170  and  _173
REMARK   72  A    between atoms: _173  and  _174
REMARK   73  A    between atoms: _177  and  _179
REMARK   74  A    between atoms: _179  and  _180
REMARK   75  A    between atoms: _179  and  _182
REMARK   76  A    between atoms: _182  and  _183
REMARK   77  A    between atoms: _185  and  _187
REMARK   78  A    between atoms: _187  and  _188
REMARK   79  A    between atoms: _187  and  _190
REMARK   80  A    between atoms: _190  and  _191
REMARK   81  A    between atoms: _196  and  _198
REMARK   82  A    between atoms: _198  and  _199
REMARK   83  A    between atoms: _198  and  _201
REMARK   84  A    between atoms: _201  and  _202
REMARK   85  A    between atoms: _205  and  _207
REMARK   86  A    between atoms: _207  and  _208
REMARK   87  A    between atoms: _207  and  _210
REMARK   88  A    between atoms: _210  and  _211
REMARK   89  A    between atoms: _211  and  _212
REMARK   90  A    between atoms: _214  and  _216
REMARK   91  A    between atoms: _216  and  _217
REMARK   92  A    between atoms: _216  and  _219
REMARK   93  A    between atoms: _219  and  _220
REMARK   94  A    between atoms: _220  and  _221
REMARK   95  A    between atoms: _221  and  _222
REMARK   96  A    between atoms: _222  and  _223
REMARK   97  A    between atoms: _227  and  _229
REMARK   98  A    between atoms: _229  and  _230
REMARK   99  A    between atoms: _229  and  _232
REMARK  100  A    between atoms: _232  and  _233
REMARK  101  A    between atoms: _233  and  _234
REMARK  102  A    between atoms: _234  and  _235
REMARK  103  A    between atoms: _244  and  _246
REMARK  104  A    between atoms: _246  and  _247
REMARK  105  A    between atoms: _246  and  _249
REMARK  106  A    between atoms: _249  and  _250
REMARK  107  A    between atoms: _253  and  _255
REMARK  108  A    between atoms: _255  and  _256
REMARK  109  A    between atoms: _255  and  _258
REMARK  110  A    between atoms: _258  and  _259
REMARK  111  A    between atoms: _264  and  _266
REMARK  112  A    between atoms: _266  and  _267
REMARK  113  A    between atoms: _266  and  _269
REMARK  114  A    between atoms: _269  and  _270
REMARK  115  A    between atoms: _270  and  _271
REMARK  116  A    between atoms: _271  and  _272
REMARK  117  A    between atoms: _272  and  _273
REMARK  118  A    between atoms: _277  and  _279
REMARK  119  A    between atoms: _279  and  _280
REMARK  120  A    between atoms: _279  and  _282
REMARK  121  A    between atoms: _282  and  _283
REMARK  122  A    between atoms: _288  and  _290
REMARK  123  A    between atoms: _290  and  _291
REMARK  124  A    between atoms: _290  and  _293
REMARK  125  A    between atoms: _293  and  _294
REMARK  126  A    between atoms: _294  and  _295
REMARK  127  A    between atoms: _295  and  _296
REMARK  128  A    between atoms: _305  and  _307
REMARK  129  A    between atoms: _307  and  _308
REMARK  130  A    between atoms: _307  and  _310
REMARK  131  A    between atoms: _310  and  _311
REMARK  132  A    between atoms: _316  and  _318
REMARK  133  A    between atoms: _318  and  _319
REMARK  134  A    between atoms: _318  and  _321
REMARK  135  A    between atoms: _321  and  _322
REMARK  136  A    between atoms: _322  and  _323
REMARK  137  A    between atoms: _323  and  _324
REMARK  138  A    between atoms: _324  and  _325
REMARK                            x       y       z     vdW  Elec       q    Type
REMARK                         _______ _______ _______ _____ _____    ______ ____
ROOT
ATOM      1  C   LYS A   1      14.739  39.799   3.978  0.00  0.00    +0.238 C 
ATOM      2  N   ASN A   2      14.866  40.439   5.127  0.00  0.00    -0.298 N 
ATOM      3  H   ASN A   2      15.803  40.801   5.395  0.00  0.00    +0.150 HD
ATOM      4  O   LYS A   1      13.639  39.260   3.608  0.00  0.00    -0.274 OA
ENDROOT
BRANCH   1   5
ATOM      5  CA  LYS A   1      16.008  39.686   3.105  0.00  0.00    +0.145 C 
BRANCH   5   6
ATOM      6  N   LYS A   1      16.717  40.967   3.084  0.00  0.00    -0.238 NA
ATOM      7  H   LYS A   1      17.703  41.009   3.413  0.00  0.00    +0.142 HD
ENDBRANCH   5   6
BRANCH   5   8
ATOM      8  CB  LYS A   1      16.929  38.474   3.496  0.00  0.00    +0.026 C 
BRANCH   8   9
ATOM      9  CG  LYS A   1      16.202  37.181   3.421  0.00  0.00    -0.000 C 
BRANCH   9  10
ATOM     10  CD  LYS A   1      17.072  35.944   3.729  0.00  0.00    -0.024 C 
BRANCH  10  11
ATOM     11  CE  LYS A   1      16.326  34.673   3.555  0.00  0.00    -0.086 C 
BRANCH  11  12
ATOM     12  NZ  LYS A   1      17.165  33.471   3.157  0.00  0.00    +0.380 N 
ATOM     13  HZ1 LYS A   1      17.882  33.293   3.889  0.00  0.00    -0.089 HD
ATOM     14  HZ2 LYS A   1      16.551  32.637   3.062  0.00  0.00    -0.089 HD
ATOM     15  HZ3 LYS A   1      17.634  33.663   2.249  0.00  0.00    -0.089 HD
ENDBRANCH  11  12
ENDBRANCH  10  11
ENDBRANCH   9  10
ENDBRANCH   8   9
ENDBRANCH   5   8
ENDBRANCH   1   5
BRANCH   2  16
ATOM     16  CA  ASN A   2      13.755  40.657   6.027  0.00  0.00    +0.146 C 
BRANCH  16  17
ATOM     17  C   ASN A   2      12.636  41.396   5.387  0.00  0.00    +0.227 C 
ATOM     18  O   ASN A   2      11.450  41.082   5.513  0.00  0.00    -0.286 OA
ENDBRANCH  16  17
BRANCH  16  19
ATOM     19  CB  ASN A   2      14.258  41.372   7.240  0.00  0.00    +0.112 C 
BRANCH  19  20
ATOM     20  CG  ASN A   2      15.139  40.397   8.163  0.00  0.00    +0.222 C 
ATOM     21  ND2 ASN A   2      15.854  40.918   9.098  0.00  0.00    -0.329 N 
ATOM     22 HD21 ASN A   2      16.548  40.335   9.608  0.00  0.00    +0.145 HD
ATOM     23 HD22 ASN A   2      15.738  41.922   9.343  0.00  0.00    +0.145 HD
ATOM     24  OD1 ASN A   2      15.222  39.218   7.820  0.00  0.00    -0.275 OA
ENDBRANCH  19  20
ENDBRANCH  16  19
ENDBRANCH   2  16
TORSDOF 11
REMARK  Name = ../refined-set-2016/1h0a/1h0a_pocket.pdb
REMARK  138 active torsions:
REMARK  status: ('A' for Active; 'I' for Inactive)
REMARK    1  A    between atoms: _1  and  _5
REMARK    2  A    between atoms: _5  and  _6
REMARK    3  A    between atoms: _5  and  _8
REMARK    4  A    between atoms: _9  and  _10
REMARK    5  A    between atoms: _12  and  _14
REMARK    6  A    between atoms: _14  and  _15
REMARK    7  A    between atoms: _14  and  _17
REMARK    8  A    between atoms: _17  and  _18
REMARK    9  A    between atoms: _21  and  _23
REMARK   10  A    between atoms: _23  and  _24
REMARK   11  A    between atoms: _23  and  _26
REMARK   12  A    between atoms: _26  and  _27
REMARK   13  A    between atoms: _29  and  _31
REMARK   14  A    between atoms: _31  and  _32
REMARK   15  A    between atoms: _31  and  _34
REMARK   16  A    between atoms: _34  and  _35
REMARK   17  A    between atoms: _37  and  _39
REMARK   18  A    between atoms: _39  and  _40
REMARK   19  A    between atoms: _39  and  _42
REMARK   20  A    between atoms: _42  and  _43
REMARK   21  A    between atoms: _46  and  _48
REMARK   22  A    between atoms: _48  and  _49
REMARK   23  A    between atoms: _48  and  _51
REMARK   24  A    between atoms: _51  and  _52
REMARK   25  A    between atoms: _52  and  _53
REMARK   26  A    between atoms: _53  and  _54
REMARK   27  A    between atoms: _63  and  _65
REMARK   28  A    between atoms: _65  and  _66
REMARK   29  A    between atoms: _65  and  _68
REMARK   30  A    between atoms: _68  and  _69
REMARK   31  A    between atoms: _69  and  _70
REMARK   32  A    between atoms: _70  and  _71
REMARK   33  A    between atoms: _80  and  _82
REMARK   34  A    between atoms: _82  and  _83
REMARK   35  A    between atoms: _82  and  _85
REMARK   36  A    between atoms: _85  and  _86
REMARK   37  A    between atoms: _86  and  _87
REMARK   38  A    between atoms: _92  and  _94
REMARK   39  A    between atoms: _94  and  _95
REMARK   40  A    between atoms: _94  and  _97
REMARK   41  A    between atoms: _97  and  _98
REMARK   42  A    between atoms: _98  and  _99
REMARK   43  A    between atoms: _99  and  _100
REMARK   44  A    between atoms: _100  and  _101
REMARK   45  A    between atoms: _105  and  _107
REMARK   46  A    between atoms: _107  and  _108
REMARK   47  A    between atoms: _107  and  _110
REMARK   48  A    between atoms: _110  and  _111
REMARK   49  A    between atoms: _116  and  _118
REMARK   50  A    between atoms: _118  and  _119
REMARK   51  A    between atoms: _118  and  _121
REMARK   52  A    between atoms: _121  and  _122
REMARK   53  A    between atoms: _127  and  _129
REMARK   54  A    between atoms: _129  and  _130
REMARK   55  A    between atoms: _129  and  _132
REMARK   56  A    between atoms: _132  and  _133
REMARK   57  A    between atoms: _138  and  _139
REMARK   58  A    between atoms: _141  and  _143
REMARK   59  A    between atoms: _143  and  _144
REMARK   60  A    between atoms: _143  and  _146
REMARK   61  A    between atoms: _146  and  _147
REMARK   62  A    between atoms: _147  and  _148
REMARK   63  A    between atoms: _148  and  _149
REMARK   64  A    between atoms: _158  and  _160
REMARK   65  A    between atoms: _160  and  _161
REMARK   66  A    between atoms: _160  and  _163
REMARK   67  A    between atoms: _163  and  _164
REMARK   68  A    between atoms: _164  and  _165
REMARK   69  A    between atoms: _168  and  _170
REMARK   70  A    between atoms: _170  and  _171
REMARK   71  A    between atoms: _170  and  _173
REMARK   72  A    between atoms: _173  and  _174
REMARK   73  A    between atoms: _177  and  _179
REMARK   74  A    between atoms: _179  and  _180
REMARK   75  A    between atoms: _179  and  _182
REMARK   76  A    between atoms: _182  and  _183
REMARK   77  A    between atoms: _185  and  _187
REMARK   78  A    between atoms: _187  and  _188
REMARK   79  A    between atoms: _187  and  _190
REMARK   80  A    between atoms: _190  and  _191
REMARK   81  A    between atoms: _196  and  _198
REMARK   82  A    between atoms: _198  and  _199
REMARK   83  A    between atoms: _198  and  _201
REMARK   84  A    between atoms: _201  and  _202
REMARK   85  A    between atoms: _205  and  _207
REMARK   86  A    between atoms: _207  and  _208
REMARK   87  A    between atoms: _207  and  _210
REMARK   88  A    between atoms: _210  and  _211
REMARK   89  A    between atoms: _211  and  _212
REMARK   90  A    between atoms: _214  and  _216
REMARK   91  A    between atoms: _216  and  _217
REMARK   92  A    between atoms: _216  and  _219
REMARK   93  A    between atoms: _219  and  _220
REMARK   94  A    between atoms: _220  and  _221
REMARK   95  A    between atoms: _221  and  _222
REMARK   96  A    between atoms: _222  and  _223
REMARK   97  A    between atoms: _227  and  _229
REMARK   98  A    between atoms: _229  and  _230
REMARK   99  A    between atoms: _229  and  _232
REMARK  100  A    between atoms: _232  and  _233
REMARK  101  A    between atoms: _233  and  _234
REMARK  102  A    between atoms: _234  and  _235
REMARK  103  A    between atoms: _244  and  _246
REMARK  104  A    between atoms: _246  and  _247
REMARK  105  A    between atoms: _246  and  _249
REMARK  106  A    between atoms: _249  and  _250
REMARK  107  A    between atoms: _253  and  _255
REMARK  108  A    between atoms: _255  and  _256
REMARK  109  A    between atoms: _255  and  _258
REMARK  110  A    between atoms: _258  and  _259
REMARK  111  A    between atoms: _264  and  _266
REMARK  112  A    between atoms: _266  and  _267
REMARK  113  A    between atoms: _266  and  _269
REMARK  114  A    between atoms: _269  and  _270
REMARK  115  A    between atoms: _270  and  _271
REMARK  116  A    between atoms: _271  and  _272
REMARK  117  A    between atoms: _272  and  _273
REMARK  118  A    between atoms: _277  and  _279
REMARK  119  A    between atoms: _279  and  _280
REMARK  120  A    between atoms: _279  and  _282
REMARK  121  A    between atoms: _282  and  _283
REMARK  122  A    between atoms: _288  and  _290
REMARK  123  A    between atoms: _290  and  _291
REMARK  124  A    between atoms: _290  and  _293
REMARK  125  A    between atoms: _293  and  _294
REMARK  126  A    between atoms: _294  and  _295
REMARK  127  A    between atoms: _295  and  _296
REMARK  128  A    between atoms: _305  and  _307
REMARK  129  A    between atoms: _307  and  _308
REMARK  130  A    between atoms: _307  and  _310
REMARK  131  A    between atoms: _310  and  _311
REMARK  132  A    between atoms: _316  and  _318
REMARK  133  A    between atoms: _318  and  _319
REMARK  134  A    between atoms: _318  and  _321
REMARK  135  A    between atoms: _321  and  _322
REMARK  136  A    between atoms: _322  and  _323
REMARK  137  A    between atoms: _323  and  _324
REMARK  138  A    between atoms: _324  and  _325
REMARK                            x       y       z     vdW  Elec       q    Type
REMARK                         _______ _______ _______ _____ _____    ______ ____
ROOT
ATOM      1  CB  HIS A   1      10.932  37.196   3.754  0.00  0.00    +0.072 C 
ENDROOT
BRANCH   1   2
ATOM      2  CG  HIS A   1      11.679  36.288   2.819  0.00  0.00    +0.082 A 
ATOM      3  ND1 HIS A   1      11.295  34.982   2.589  0.00  0.00    -0.227 NA
ATOM      4  CE1 HIS A   1      12.131  34.408   1.746  0.00  0.00    +0.199 A 
ATOM      5  NE2 HIS A   1      13.046  35.297   1.412  0.00  0.00    -0.221 NA
ATOM      6  CD2 HIS A   1      12.779  36.484   2.064  0.00  0.00    +0.115 A 
ENDBRANCH   1   2
BRANCH   1   7
ATOM      7  CA  HIS A   1      10.019  38.206   3.047  0.00  0.00    +0.139 C 
BRANCH   7   8
ATOM      8  N   HIS A   1      10.891  39.242   2.541  0.00  0.00    -0.239 NA
ATOM      9  H   HIS A   1      11.802  39.424   3.008  0.00  0.00    +0.142 HD
ENDBRANCH   7   8
BRANCH   7  10
ATOM     10  C   HIS A   1       8.933  38.713   3.953  0.00  0.00    +0.224 C 
ATOM     11  O   HIS A   1       8.110  37.914   4.445  0.00  0.00    -0.287 OA
ENDBRANCH   7  10
ENDBRANCH   1   7
TORSDOF 4
REMARK  Name = ../refined-set-2016/1h0a/1h0a_pocket.pdb
REMARK  138 active torsions:
REMARK  status: ('A' for Active; 'I' for Inactive)
REMARK    1  A    between atoms: _1  and  _5
REMARK    2  A    between atoms: _5  and  _6
REMARK    3  A    between atoms: _5  and  _8
REMARK    4  A    between atoms: _9  and  _10
REMARK    5  A    between atoms: _12  and  _14
REMARK    6  A    between atoms: _14  and  _15
REMARK    7  A    between atoms: _14  and  _17
REMARK    8  A    between atoms: _17  and  _18
REMARK    9  A    between atoms: _21  and  _23
REMARK   10  A    between atoms: _23  and  _24
REMARK   11  A    between atoms: _23  and  _26
REMARK   12  A    between atoms: _26  and  _27
REMARK   13  A    between atoms: _29  and  _31
REMARK   14  A    between atoms: _31  and  _32
REMARK   15  A    between atoms: _31  and  _34
REMARK   16  A    between atoms: _34  and  _35
REMARK   17  A    between atoms: _37  and  _39
REMARK   18  A    between atoms: _39  and  _40
REMARK   19  A    between atoms: _39  and  _42
REMARK   20  A    between atoms: _42  and  _43
REMARK   21  A    between atoms: _46  and  _48
REMARK   22  A    between atoms: _48  and  _49
REMARK   23  A    between atoms: _48  and  _51
REMARK   24  A    between atoms: _51  and  _52
REMARK   25  A    between atoms: _52  and  _53
REMARK   26  A    between atoms: _53  and  _54
REMARK   27  A    between atoms: _63  and  _65
REMARK   28  A    between atoms: _65  and  _66
REMARK   29  A    between atoms: _65  and  _68
REMARK   30  A    between atoms: _68  and  _69
REMARK   31  A    between atoms: _69  and  _70
REMARK   32  A    between atoms: _70  and  _71
REMARK   33  A    between atoms: _80  and  _82
REMARK   34  A    between atoms: _82  and  _83
REMARK   35  A    between atoms: _82  and  _85
REMARK   36  A    between atoms: _85  and  _86
REMARK   37  A    between atoms: _86  and  _87
REMARK   38  A    between atoms: _92  and  _94
REMARK   39  A    between atoms: _94  and  _95
REMARK   40  A    between atoms: _94  and  _97
REMARK   41  A    between atoms: _97  and  _98
REMARK   42  A    between atoms: _98  and  _99
REMARK   43  A    between atoms: _99  and  _100
REMARK   44  A    between atoms: _100  and  _101
REMARK   45  A    between atoms: _105  and  _107
REMARK   46  A    between atoms: _107  and  _108
REMARK   47  A    between atoms: _107  and  _110
REMARK   48  A    between atoms: _110  and  _111
REMARK   49  A    between atoms: _116  and  _118
REMARK   50  A    between atoms: _118  and  _119
REMARK   51  A    between atoms: _118  and  _121
REMARK   52  A    between atoms: _121  and  _122
REMARK   53  A    between atoms: _127  and  _129
REMARK   54  A    between atoms: _129  and  _130
REMARK   55  A    between atoms: _129  and  _132
REMARK   56  A    between atoms: _132  and  _133
REMARK   57  A    between atoms: _138  and  _139
REMARK   58  A    between atoms: _141  and  _143
REMARK   59  A    between atoms: _143  and  _144
REMARK   60  A    between atoms: _143  and  _146
REMARK   61  A    between atoms: _146  and  _147
REMARK   62  A    between atoms: _147  and  _148
REMARK   63  A    between atoms: _148  and  _149
REMARK   64  A    between atoms: _158  and  _160
REMARK   65  A    between atoms: _160  and  _161
REMARK   66  A    between atoms: _160  and  _163
REMARK   67  A    between atoms: _163  and  _164
REMARK   68  A    between atoms: _164  and  _165
REMARK   69  A    between atoms: _168  and  _170
REMARK   70  A    between atoms: _170  and  _171
REMARK   71  A    between atoms: _170  and  _173
REMARK   72  A    between atoms: _173  and  _174
REMARK   73  A    between atoms: _177  and  _179
REMARK   74  A    between atoms: _179  and  _180
REMARK   75  A    between atoms: _179  and  _182
REMARK   76  A    between atoms: _182  and  _183
REMARK   77  A    between atoms: _185  and  _187
REMARK   78  A    between atoms: _187  and  _188
REMARK   79  A    between atoms: _187  and  _190
REMARK   80  A    between atoms: _190  and  _191
REMARK   81  A    between atoms: _196  and  _198
REMARK   82  A    between atoms: _198  and  _199
REMARK   83  A    between atoms: _198  and  _201
REMARK   84  A    between atoms: _201  and  _202
REMARK   85  A    between atoms: _205  and  _207
REMARK   86  A    between atoms: _207  and  _208
REMARK   87  A    between atoms: _207  and  _210
REMARK   88  A    between atoms: _210  and  _211
REMARK   89  A    between atoms: _211  and  _212
REMARK   90  A    between atoms: _214  and  _216
REMARK   91  A    between atoms: _216  and  _217
REMARK   92  A    between atoms: _216  and  _219
REMARK   93  A    between atoms: _219  and  _220
REMARK   94  A    between atoms: _220  and  _221
REMARK   95  A    between atoms: _221  and  _222
REMARK   96  A    between atoms: _222  and  _223
REMARK   97  A    between atoms: _227  and  _229
REMARK   98  A    between atoms: _229  and  _230
REMARK   99  A    between atoms: _229  and  _232
REMARK  100  A    between atoms: _232  and  _233
REMARK  101  A    between atoms: _233  and  _234
REMARK  102  A    between atoms: _234  and  _235
REMARK  103  A    between atoms: _244  and  _246
REMARK  104  A    between atoms: _246  and  _247
REMARK  105  A    between atoms: _246  and  _249
REMARK  106  A    between atoms: _249  and  _250
REMARK  107  A    between atoms: _253  and  _255
REMARK  108  A    between atoms: _255  and  _256
REMARK  109  A    between atoms: _255  and  _258
REMARK  110  A    between atoms: _258  and  _259
REMARK  111  A    between atoms: _264  and  _266
REMARK  112  A    between atoms: _266  and  _267
REMARK  113  A    between atoms: _266  and  _269
REMARK  114  A    between atoms: _269  and  _270
REMARK  115  A    between atoms: _270  and  _271
REMARK  116  A    between atoms: _271  and  _272
REMARK  117  A    between atoms: _272  and  _273
REMARK  118  A    between atoms: _277  and  _279
REMARK  119  A    between atoms: _279  and  _280
REMARK  120  A    between atoms: _279  and  _282
REMARK  121  A    between atoms: _282  and  _283
REMARK  122  A    between atoms: _288  and  _290
REMARK  123  A    between atoms: _290  and  _291
REMARK  124  A    between atoms: _290  and  _293
REMARK  125  A    between atoms: _293  and  _294
REMARK  126  A    between atoms: _294  and  _295
REMARK  127  A    between atoms: _295  and  _296
REMARK  128  A    between atoms: _305  and  _307
REMARK  129  A    between atoms: _307  and  _308
REMARK  130  A    between atoms: _307  and  _310
REMARK  131  A    between atoms: _310  and  _311
REMARK  132  A    between atoms: _316  and  _318
REMARK  133  A    between atoms: _318  and  _319
REMARK  134  A    between atoms: _318  and  _321
REMARK  135  A    between atoms: _321  and  _322
REMARK  136  A    between atoms: _322  and  _323
REMARK  137  A    between atoms: _323  and  _324
REMARK  138  A    between atoms: _324  and  _325
REMARK                            x       y       z     vdW  Elec       q    Type
REMARK                         _______ _______ _______ _____ _____    ______ ____
ROOT
ATOM      1  CG  TYR A   1      11.250  37.115   7.788  0.00  0.00    -0.020 A 
ATOM      2  CD2 TYR A   1      10.412  36.093   7.444  0.00  0.00    -0.001 A 
ATOM      3  CE2 TYR A   1      10.876  35.036   6.665  0.00  0.00    +0.036 A 
ATOM      4  CZ  TYR A   1      12.215  35.041   6.227  0.00  0.00    +0.134 A 
ATOM      5  CE1 TYR A   1      13.053  36.060   6.554  0.00  0.00    +0.036 A 
ATOM      6  CD1 TYR A   1      12.578  37.089   7.334  0.00  0.00    -0.001 A 
ENDROOT
BRANCH   4   7
ATOM      7  OH  TYR A   1      12.786  33.997   5.492  0.00  0.00    -0.506 OA
ATOM      8  HH  TYR A   1      12.288  33.881   4.644  0.00  0.00    +0.292 HD
ENDBRANCH   4   7
BRANCH   1   9
ATOM      9  CB  TYR A   1      10.759  38.353   8.631  0.00  0.00    +0.051 C 
BRANCH   9  10
ATOM     10  CA  TYR A   1       9.318  38.771   8.345  0.00  0.00    +0.137 C 
BRANCH  10  11
ATOM     11  N   TYR A   1       9.180  39.477   7.095  0.00  0.00    -0.239 NA
ATOM     12  H   TYR A   1      10.034  39.746   6.566  0.00  0.00    +0.142 HD
ENDBRANCH  10  11
BRANCH  10  13
ATOM     13  C   TYR A   1       8.837  39.650   9.480  0.00  0.00    +0.224 C 
ATOM     14  O   TYR A   1       9.067  40.895   9.541  0.00  0.00    -0.287 OA
ENDBRANCH  10  13
ENDBRANCH   9  10
ENDBRANCH   1   9
TORSDOF 5
REMARK  Name = ../refined-set-2016/1h0a/1h0a_pocket.pdb
REMARK  138 active torsions:
REMARK  status: ('A' for Active; 'I' for Inactive)
REMARK    1  A    between atoms: _1  and  _5
REMARK    2  A    between atoms: _5  and  _6
REMARK    3  A    between atoms: _5  and  _8
REMARK    4  A    between atoms: _9  and  _10
REMARK    5  A    between atoms: _12  and  _14
REMARK    6  A    between atoms: _14  and  _15
REMARK    7  A    between atoms: _14  and  _17
REMARK    8  A    between atoms: _17  and  _18
REMARK    9  A    between atoms: _21  and  _23
REMARK   10  A    between atoms: _23  and  _24
REMARK   11  A    between atoms: _23  and  _26
REMARK   12  A    between atoms: _26  and  _27
REMARK   13  A    between atoms: _29  and  _31
REMARK   14  A    between atoms: _31  and  _32
REMARK   15  A    between atoms: _31  and  _34
REMARK   16  A    between atoms: _34  and  _35
REMARK   17  A    between atoms: _37  and  _39
REMARK   18  A    between atoms: _39  and  _40
REMARK   19  A    between atoms: _39  and  _42
REMARK   20  A    between atoms: _42  and  _43
REMARK   21  A    between atoms: _46  and  _48
REMARK   22  A    between atoms: _48  and  _49
REMARK   23  A    between atoms: _48  and  _51
REMARK   24  A    between atoms: _51  and  _52
REMARK   25  A    between atoms: _52  and  _53
REMARK   26  A    between atoms: _53  and  _54
REMARK   27  A    between atoms: _63  and  _65
REMARK   28  A    between atoms: _65  and  _66
REMARK   29  A    between atoms: _65  and  _68
REMARK   30  A    between atoms: _68  and  _69
REMARK   31  A    between atoms: _69  and  _70
REMARK   32  A    between atoms: _70  and  _71
REMARK   33  A    between atoms: _80  and  _82
REMARK   34  A    between atoms: _82  and  _83
REMARK   35  A    between atoms: _82  and  _85
REMARK   36  A    between atoms: _85  and  _86
REMARK   37  A    between atoms: _86  and  _87
REMARK   38  A    between atoms: _92  and  _94
REMARK   39  A    between atoms: _94  and  _95
REMARK   40  A    between atoms: _94  and  _97
REMARK   41  A    between atoms: _97  and  _98
REMARK   42  A    between atoms: _98  and  _99
REMARK   43  A    between atoms: _99  and  _100
REMARK   44  A    between atoms: _100  and  _101
REMARK   45  A    between atoms: _105  and  _107
REMARK   46  A    between atoms: _107  and  _108
REMARK   47  A    between atoms: _107  and  _110
REMARK   48  A    between atoms: _110  and  _111
REMARK   49  A    between atoms: _116  and  _118
REMARK   50  A    between atoms: _118  and  _119
REMARK   51  A    between atoms: _118  and  _121
REMARK   52  A    between atoms: _121  and  _122
REMARK   53  A    between atoms: _127  and  _129
REMARK   54  A    between atoms: _129  and  _130
REMARK   55  A    between atoms: _129  and  _132
REMARK   56  A    between atoms: _132  and  _133
REMARK   57  A    between atoms: _138  and  _139
REMARK   58  A    between atoms: _141  and  _143
REMARK   59  A    between atoms: _143  and  _144
REMARK   60  A    between atoms: _143  and  _146
REMARK   61  A    between atoms: _146  and  _147
REMARK   62  A    between atoms: _147  and  _148
REMARK   63  A    between atoms: _148  and  _149
REMARK   64  A    between atoms: _158  and  _160
REMARK   65  A    between atoms: _160  and  _161
REMARK   66  A    between atoms: _160  and  _163
REMARK   67  A    between atoms: _163  and  _164
REMARK   68  A    between atoms: _164  and  _165
REMARK   69  A    between atoms: _168  and  _170
REMARK   70  A    between atoms: _170  and  _171
REMARK   71  A    between atoms: _170  and  _173
REMARK   72  A    between atoms: _173  and  _174
REMARK   73  A    between atoms: _177  and  _179
REMARK   74  A    between atoms: _179  and  _180
REMARK   75  A    between atoms: _179  and  _182
REMARK   76  A    between atoms: _182  and  _183
REMARK   77  A    between atoms: _185  and  _187
REMARK   78  A    between atoms: _187  and  _188
REMARK   79  A    between atoms: _187  and  _190
REMARK   80  A    between atoms: _190  and  _191
REMARK   81  A    between atoms: _196  and  _198
REMARK   82  A    between atoms: _198  and  _199
REMARK   83  A    between atoms: _198  and  _201
REMARK   84  A    between atoms: _201  and  _202
REMARK   85  A    between atoms: _205  and  _207
REMARK   86  A    between atoms: _207  and  _208
REMARK   87  A    between atoms: _207  and  _210
REMARK   88  A    between atoms: _210  and  _211
REMARK   89  A    between atoms: _211  and  _212
REMARK   90  A    between atoms: _214  and  _216
REMARK   91  A    between atoms: _216  and  _217
REMARK   92  A    between atoms: _216  and  _219
REMARK   93  A    between atoms: _219  and  _220
REMARK   94  A    between atoms: _220  and  _221
REMARK   95  A    between atoms: _221  and  _222
REMARK   96  A    between atoms: _222  and  _223
REMARK   97  A    between atoms: _227  and  _229
REMARK   98  A    between atoms: _229  and  _230
REMARK   99  A    between atoms: _229  and  _232
REMARK  100  A    between atoms: _232  and  _233
REMARK  101  A    between atoms: _233  and  _234
REMARK  102  A    between atoms: _234  and  _235
REMARK  103  A    between atoms: _244  and  _246
REMARK  104  A    between atoms: _246  and  _247
REMARK  105  A    between atoms: _246  and  _249
REMARK  106  A    between atoms: _249  and  _250
REMARK  107  A    between atoms: _253  and  _255
REMARK  108  A    between atoms: _255  and  _256
REMARK  109  A    between atoms: _255  and  _258
REMARK  110  A    between atoms: _258  and  _259
REMARK  111  A    between atoms: _264  and  _266
REMARK  112  A    between atoms: _266  and  _267
REMARK  113  A    between atoms: _266  and  _269
REMARK  114  A    between atoms: _269  and  _270
REMARK  115  A    between atoms: _270  and  _271
REMARK  116  A    between atoms: _271  and  _272
REMARK  117  A    between atoms: _272  and  _273
REMARK  118  A    between atoms: _277  and  _279
REMARK  119  A    between atoms: _279  and  _280
REMARK  120  A    between atoms: _279  and  _282
REMARK  121  A    between atoms: _282  and  _283
REMARK  122  A    between atoms: _288  and  _290
REMARK  123  A    between atoms: _290  and  _291
REMARK  124  A    between atoms: _290  and  _293
REMARK  125  A    between atoms: _293  and  _294
REMARK  126  A    between atoms: _294  and  _295
REMARK  127  A    between atoms: _295  and  _296
REMARK  128  A    between atoms: _305  and  _307
REMARK  129  A    between atoms: _307  and  _308
REMARK  130  A    between atoms: _307  and  _310
REMARK  131  A    between atoms: _310  and  _311
REMARK  132  A    between atoms: _316  and  _318
REMARK  133  A    between atoms: _318  and  _319
REMARK  134  A    between atoms: _318  and  _321
REMARK  135  A    between atoms: _321  and  _322
REMARK  136  A    between atoms: _322  and  _323
REMARK  137  A    between atoms: _323  and  _324
REMARK  138  A    between atoms: _324  and  _325
REMARK                            x       y       z     vdW  Elec       q    Type
REMARK                         _______ _______ _______ _____ _____    ______ ____
ROOT
ATOM      1  CA  ARG A   1      17.476  35.589  12.424  0.00  0.00    +0.145 C 
ENDROOT
BRANCH   1   2
ATOM      2  C   ARG A   1      18.727  36.238  12.782  0.00  0.00    +0.238 C 
ATOM      3  N   GLU A   2      18.615  37.345  13.550  0.00  0.00    -0.298 N 
ATOM      4  H   GLU A   2      17.677  37.717  13.803  0.00  0.00    +0.150 HD
ATOM      5  O   ARG A   1      19.824  35.828  12.457  0.00  0.00    -0.274 OA
BRANCH   3   6
ATOM      6  CA  GLU A   2      19.780  37.988  14.002  0.00  0.00    +0.137 C 
BRANCH   6   7
ATOM      7  C   GLU A   2      20.574  37.180  15.009  0.00  0.00    +0.227 C 
ATOM      8  O   GLU A   2      21.778  37.004  14.907  0.00  0.00    -0.286 OA
ENDBRANCH   6   7
BRANCH   6   9
ATOM      9  CB  GLU A   2      19.363  39.337  14.590  0.00  0.00    +0.039 C 
BRANCH   9  10
ATOM     10  CG  GLU A   2      20.470  40.150  15.189  0.00  0.00    +0.116 C 
BRANCH  10  11
ATOM     11  CD  GLU A   2      21.527  40.611  14.167  0.00  0.00    +0.365 C 
ATOM     12  OE2 GLU A   2      22.750  40.610  14.540  0.00  0.00    -0.246 OA
ATOM     13  OE1 GLU A   2      21.093  40.980  13.032  0.00  0.00    -0.246 OA
ENDBRANCH  10  11
ENDBRANCH   9  10
ENDBRANCH   6   9
ENDBRANCH   3   6
ENDBRANCH   1   2
BRANCH   1  14
ATOM     14  N   ARG A   1      16.470  35.543  13.491  0.00  0.00    -0.238 NA
ATOM     15  H   ARG A   1      15.552  36.010  13.348  0.00  0.00    +0.142 HD
ENDBRANCH   1  14
BRANCH   1  16
ATOM     16  CB  ARG A   1      16.890  36.106  11.066  0.00  0.00    +0.030 C 
BRANCH  16  17
ATOM     17  CG  ARG A   1      16.073  35.014  10.256  0.00  0.00    +0.045 C 
BRANCH  17  18
ATOM     18  CD  ARG A   1      15.083  35.566   9.214  0.00  0.00    +0.174 C 
BRANCH  18  19
ATOM     19  NE  ARG A   1      15.863  36.567   8.427  0.00  0.00    -0.265 N 
ATOM     20  HE  ARG A   1      15.623  37.570   8.564  0.00  0.00    +0.259 HD
ATOM     21  CZ  ARG A   1      16.832  36.291   7.571  0.00  0.00    +0.342 C 
ATOM     22  NH2 ARG A   1      17.216  35.069   7.310  0.00  0.00    -0.292 N 
ATOM     23 HH21 ARG A   1      16.754  34.266   7.784  0.00  0.00    +0.255 HD
ATOM     24 HH22 ARG A   1      17.983  34.899   6.629  0.00  0.00    +0.255 HD
ATOM     25  NH1 ARG A   1      17.449  37.266   6.904  0.00  0.00    -0.292 N 
ATOM     26 HH11 ARG A   1      17.170  38.256   7.054  0.00  0.00    +0.255 HD
ATOM     27 HH12 ARG A   1      18.210  37.036   6.233  0.00  0.00    +0.255 HD
ENDBRANCH  18  19
ENDBRANCH  17  18
ENDBRANCH  16  17
ENDBRANCH   1  16
TORSDOF 11
REMARK  Name = ../refined-set-2016/1h0a/1h0a_pocket.pdb
REMARK  138 active torsions:
REMARK  status: ('A' for Active; 'I' for Inactive)
REMARK    1  A    between atoms: _1  and  _5
REMARK    2  A    between atoms: _5  and  _6
REMARK    3  A    between atoms: _5  and  _8
REMARK    4  A    between atoms: _9  and  _10
REMARK    5  A    between atoms: _12  and  _14
REMARK    6  A    between atoms: _14  and  _15
REMARK    7  A    between atoms: _14  and  _17
REMARK    8  A    between atoms: _17  and  _18
REMARK    9  A    between atoms: _21  and  _23
REMARK   10  A    between atoms: _23  and  _24
REMARK   11  A    between atoms: _23  and  _26
REMARK   12  A    between atoms: _26  and  _27
REMARK   13  A    between atoms: _29  and  _31
REMARK   14  A    between atoms: _31  and  _32
REMARK   15  A    between atoms: _31  and  _34
REMARK   16  A    between atoms: _34  and  _35
REMARK   17  A    between atoms: _37  and  _39
REMARK   18  A    between atoms: _39  and  _40
REMARK   19  A    between atoms: _39  and  _42
REMARK   20  A    between atoms: _42  and  _43
REMARK   21  A    between atoms: _46  and  _48
REMARK   22  A    between atoms: _48  and  _49
REMARK   23  A    between atoms: _48  and  _51
REMARK   24  A    between atoms: _51  and  _52
REMARK   25  A    between atoms: _52  and  _53
REMARK   26  A    between atoms: _53  and  _54
REMARK   27  A    between atoms: _63  and  _65
REMARK   28  A    between atoms: _65  and  _66
REMARK   29  A    between atoms: _65  and  _68
REMARK   30  A    between atoms: _68  and  _69
REMARK   31  A    between atoms: _69  and  _70
REMARK   32  A    between atoms: _70  and  _71
REMARK   33  A    between atoms: _80  and  _82
REMARK   34  A    between atoms: _82  and  _83
REMARK   35  A    between atoms: _82  and  _85
REMARK   36  A    between atoms: _85  and  _86
REMARK   37  A    between atoms: _86  and  _87
REMARK   38  A    between atoms: _92  and  _94
REMARK   39  A    between atoms: _94  and  _95
REMARK   40  A    between atoms: _94  and  _97
REMARK   41  A    between atoms: _97  and  _98
REMARK   42  A    between atoms: _98  and  _99
REMARK   43  A    between atoms: _99  and  _100
REMARK   44  A    between atoms: _100  and  _101
REMARK   45  A    between atoms: _105  and  _107
REMARK   46  A    between atoms: _107  and  _108
REMARK   47  A    between atoms: _107  and  _110
REMARK   48  A    between atoms: _110  and  _111
REMARK   49  A    between atoms: _116  and  _118
REMARK   50  A    between atoms: _118  and  _119
REMARK   51  A    between atoms: _118  and  _121
REMARK   52  A    between atoms: _121  and  _122
REMARK   53  A    between atoms: _127  and  _129
REMARK   54  A    between atoms: _129  and  _130
REMARK   55  A    between atoms: _129  and  _132
REMARK   56  A    between atoms: _132  and  _133
REMARK   57  A    between atoms: _138  and  _139
REMARK   58  A    between atoms: _141  and  _143
REMARK   59  A    between atoms: _143  and  _144
REMARK   60  A    between atoms: _143  and  _146
REMARK   61  A    between atoms: _146  and  _147
REMARK   62  A    between atoms: _147  and  _148
REMARK   63  A    between atoms: _148  and  _149
REMARK   64  A    between atoms: _158  and  _160
REMARK   65  A    between atoms: _160  and  _161
REMARK   66  A    between atoms: _160  and  _163
REMARK   67  A    between atoms: _163  and  _164
REMARK   68  A    between atoms: _164  and  _165
REMARK   69  A    between atoms: _168  and  _170
REMARK   70  A    between atoms: _170  and  _171
REMARK   71  A    between atoms: _170  and  _173
REMARK   72  A    between atoms: _173  and  _174
REMARK   73  A    between atoms: _177  and  _179
REMARK   74  A    between atoms: _179  and  _180
REMARK   75  A    between atoms: _179  and  _182
REMARK   76  A    between atoms: _182  and  _183
REMARK   77  A    between atoms: _185  and  _187
REMARK   78  A    between atoms: _187  and  _188
REMARK   79  A    between atoms: _187  and  _190
REMARK   80  A    between atoms: _190  and  _191
REMARK   81  A    between atoms: _196  and  _198
REMARK   82  A    between atoms: _198  and  _199
REMARK   83  A    between atoms: _198  and  _201
REMARK   84  A    between atoms: _201  and  _202
REMARK   85  A    between atoms: _205  and  _207
REMARK   86  A    between atoms: _207  and  _208
REMARK   87  A    between atoms: _207  and  _210
REMARK   88  A    between atoms: _210  and  _211
REMARK   89  A    between atoms: _211  and  _212
REMARK   90  A    between atoms: _214  and  _216
REMARK   91  A    between atoms: _216  and  _217
REMARK   92  A    between atoms: _216  and  _219
REMARK   93  A    between atoms: _219  and  _220
REMARK   94  A    between atoms: _220  and  _221
REMARK   95  A    between atoms: _221  and  _222
REMARK   96  A    between atoms: _222  and  _223
REMARK   97  A    between atoms: _227  and  _229
REMARK   98  A    between atoms: _229  and  _230
REMARK   99  A    between atoms: _229  and  _232
REMARK  100  A    between atoms: _232  and  _233
REMARK  101  A    between atoms: _233  and  _234
REMARK  102  A    between atoms: _234  and  _235
REMARK  103  A    between atoms: _244  and  _246
REMARK  104  A    between atoms: _246  and  _247
REMARK  105  A    between atoms: _246  and  _249
REMARK  106  A    between atoms: _249  and  _250
REMARK  107  A    between atoms: _253  and  _255
REMARK  108  A    between atoms: _255  and  _256
REMARK  109  A    between atoms: _255  and  _258
REMARK  110  A    between atoms: _258  and  _259
REMARK  111  A    between atoms: _264  and  _266
REMARK  112  A    between atoms: _266  and  _267
REMARK  113  A    between atoms: _266  and  _269
REMARK  114  A    between atoms: _269  and  _270
REMARK  115  A    between atoms: _270  and  _271
REMARK  116  A    between atoms: _271  and  _272
REMARK  117  A    between atoms: _272  and  _273
REMARK  118  A    between atoms: _277  and  _279
REMARK  119  A    between atoms: _279  and  _280
REMARK  120  A    between atoms: _279  and  _282
REMARK  121  A    between atoms: _282  and  _283
REMARK  122  A    between atoms: _288  and  _290
REMARK  123  A    between atoms: _290  and  _291
REMARK  124  A    between atoms: _290  and  _293
REMARK  125  A    between atoms: _293  and  _294
REMARK  126  A    between atoms: _294  and  _295
REMARK  127  A    between atoms: _295  and  _296
REMARK  128  A    between atoms: _305  and  _307
REMARK  129  A    between atoms: _307  and  _308
REMARK  130  A    between atoms: _307  and  _310
REMARK  131  A    between atoms: _310  and  _311
REMARK  132  A    between atoms: _316  and  _318
REMARK  133  A    between atoms: _318  and  _319
REMARK  134  A    between atoms: _318  and  _321
REMARK  135  A    between atoms: _321  and  _322
REMARK  136  A    between atoms: _322  and  _323
REMARK  137  A    between atoms: _323  and  _324
REMARK  138  A    between atoms: _324  and  _325
REMARK                            x       y       z     vdW  Elec       q    Type
REMARK                         _______ _______ _______ _____ _____    ______ ____
ROOT
ATOM      1  C   SER A   2      24.585  33.806  11.781  0.00  0.00    +0.243 C 
ATOM      2  O   SER A   2      25.167  33.273  12.780  0.00  0.00    -0.273 OA
ATOM      3  N   ASN A   3      25.160  33.860  10.546  0.00  0.00    -0.297 N 
ATOM      4  H   ASN A   3      24.602  34.264   9.767  0.00  0.00    +0.150 HD
ENDROOT
BRANCH   1   5
ATOM      5  CA  SER A   2      23.221  34.548  11.918  0.00  0.00    +0.178 C 
BRANCH   5   7
ATOM      6  C   THR A   1      22.045  33.012  13.372  0.00  0.00    +0.241 C 
ATOM      7  N   SER A   2      22.512  34.226  13.154  0.00  0.00    -0.295 N 
ATOM      8  H   SER A   2      22.373  34.965  13.873  0.00  0.00    +0.150 HD
ATOM      9  O   THR A   1      22.176  32.094  12.543  0.00  0.00    -0.274 OA
BRANCH   6  10
ATOM     10  CA  THR A   1      21.244  32.833  14.640  0.00  0.00    +0.172 C 
BRANCH  10  11
ATOM     11  N   THR A   1      20.726  34.021  15.232  0.00  0.00    -0.236 NA
ATOM     12  H   THR A   1      19.957  34.515  14.737  0.00  0.00    +0.142 HD
ENDBRANCH  10  11
BRANCH  10  13
ATOM     13  CB  THR A   1      20.108  31.788  14.479  0.00  0.00    +0.135 C 
ATOM     14  CG2 THR A   1      19.413  31.535  15.813  0.00  0.00    +0.034 C 
BRANCH  13  15
ATOM     15  OG1 THR A   1      19.104  32.272  13.533  0.00  0.00    -0.383 OA
ATOM     16  HG1 THR A   1      18.719  33.120  13.868  0.00  0.00    +0.210 HD
ENDBRANCH  13  15
ENDBRANCH  10  13
ENDBRANCH   6  10
ENDBRANCH   5   7
BRANCH   5  17
ATOM     17  CB  SER A   2      23.424  36.035  11.874  0.00  0.00    +0.166 C 
BRANCH  17  18
ATOM     18  OG  SER A   2      24.492  36.464  12.715  0.00  0.00    -0.380 OA
ATOM     19  H   SER A   2      24.586  37.448  12.652  0.00  0.00    +0.211 HD
ENDBRANCH  17  18
ENDBRANCH   5  17
ENDBRANCH   1   5
BRANCH   3  20
ATOM     20  CA  ASN A   3      26.485  33.396  10.251  0.00  0.00    +0.158 C 
BRANCH  20  21
ATOM     21  C   ASN A   3      27.561  34.288  10.827  0.00  0.00    +0.241 C 
ATOM     22  N   ASP A   4      27.233  35.340  11.545  0.00  0.00    -0.298 N 
ATOM     23  H   ASP A   4      26.234  35.577  11.711  0.00  0.00    +0.150 HD
ATOM     24  O   ASN A   3      28.747  33.998  10.694  0.00  0.00    -0.273 OA
BRANCH  22  25
ATOM     25  CA  ASP A   4      28.294  36.167  12.103  0.00  0.00    +0.148 C 
BRANCH  25  26
ATOM     26  C   ASP A   4      29.083  35.401  13.176  0.00  0.00    +0.227 C 
ATOM     27  O   ASP A   4      28.478  34.675  13.948  0.00  0.00    -0.286 OA
ENDBRANCH  25  26
BRANCH  25  28
ATOM     28  CB  ASP A   4      27.797  37.451  12.709  0.00  0.00    +0.142 C 
BRANCH  28  29
ATOM     29  CG  ASP A   4      27.219  38.495  11.619  0.00  0.00    +0.367 C 
ATOM     30  OD2 ASP A   4      26.384  39.343  11.952  0.00  0.00    -0.246 OA
ATOM     31  OD1 ASP A   4      27.590  38.490  10.403  0.00  0.00    -0.246 OA
ENDBRANCH  28  29
ENDBRANCH  25  28
ENDBRANCH  22  25
ENDBRANCH  20  21
BRANCH  20  32
ATOM     32  CB  ASN A   3      26.710  33.188   8.730  0.00  0.00    +0.114 C 
BRANCH  32  33
ATOM     33  CG  ASN A   3      26.199  31.950   8.220  0.00  0.00    +0.222 C 
ATOM     34  OD1 ASN A   3      26.121  30.949   8.990  0.00  0.00    -0.275 OA
ATOM     35  ND2 ASN A   3      25.883  31.909   6.925  0.00  0.00    -0.329 N 
ATOM     36 HD21 ASN A   3      25.552  31.020   6.498  0.00  0.00    +0.145 HD
ATOM     37 HD22 ASN A   3      25.968  32.766   6.342  0.00  0.00    +0.145 HD
ENDBRANCH  32  33
ENDBRANCH  20  32
ENDBRANCH   3  20
TORSDOF 16
REMARK  Name = ../refined-set-2016/1h0a/1h0a_pocket.pdb
REMARK  138 active torsions:
REMARK  status: ('A' for Active; 'I' for Inactive)
REMARK    1  A    between atoms: _1  and  _5
REMARK    2  A    between atoms: _5  and  _6
REMARK    3  A    between atoms: _5  and  _8
REMARK    4  A    between atoms: _9  and  _10
REMARK    5  A    between atoms: _12  and  _14
REMARK    6  A    between atoms: _14  and  _15
REMARK    7  A    between atoms: _14  and  _17
REMARK    8  A    between atoms: _17  and  _18
REMARK    9  A    between atoms: _21  and  _23
REMARK   10  A    between atoms: _23  and  _24
REMARK   11  A    between atoms: _23  and  _26
REMARK   12  A    between atoms: _26  and  _27
REMARK   13  A    between atoms: _29  and  _31
REMARK   14  A    between atoms: _31  and  _32
REMARK   15  A    between atoms: _31  and  _34
REMARK   16  A    between atoms: _34  and  _35
REMARK   17  A    between atoms: _37  and  _39
REMARK   18  A    between atoms: _39  and  _40
REMARK   19  A    between atoms: _39  and  _42
REMARK   20  A    between atoms: _42  and  _43
REMARK   21  A    between atoms: _46  and  _48
REMARK   22  A    between atoms: _48  and  _49
REMARK   23  A    between atoms: _48  and  _51
REMARK   24  A    between atoms: _51  and  _52
REMARK   25  A    between atoms: _52  and  _53
REMARK   26  A    between atoms: _53  and  _54
REMARK   27  A    between atoms: _63  and  _65
REMARK   28  A    between atoms: _65  and  _66
REMARK   29  A    between atoms: _65  and  _68
REMARK   30  A    between atoms: _68  and  _69
REMARK   31  A    between atoms: _69  and  _70
REMARK   32  A    between atoms: _70  and  _71
REMARK   33  A    between atoms: _80  and  _82
REMARK   34  A    between atoms: _82  and  _83
REMARK   35  A    between atoms: _82  and  _85
REMARK   36  A    between atoms: _85  and  _86
REMARK   37  A    between atoms: _86  and  _87
REMARK   38  A    between atoms: _92  and  _94
REMARK   39  A    between atoms: _94  and  _95
REMARK   40  A    between atoms: _94  and  _97
REMARK   41  A    between atoms: _97  and  _98
REMARK   42  A    between atoms: _98  and  _99
REMARK   43  A    between atoms: _99  and  _100
REMARK   44  A    between atoms: _100  and  _101
REMARK   45  A    between atoms: _105  and  _107
REMARK   46  A    between atoms: _107  and  _108
REMARK   47  A    between atoms: _107  and  _110
REMARK   48  A    between atoms: _110  and  _111
REMARK   49  A    between atoms: _116  and  _118
REMARK   50  A    between atoms: _118  and  _119
REMARK   51  A    between atoms: _118  and  _121
REMARK   52  A    between atoms: _121  and  _122
REMARK   53  A    between atoms: _127  and  _129
REMARK   54  A    between atoms: _129  and  _130
REMARK   55  A    between atoms: _129  and  _132
REMARK   56  A    between atoms: _132  and  _133
REMARK   57  A    between atoms: _138  and  _139
REMARK   58  A    between atoms: _141  and  _143
REMARK   59  A    between atoms: _143  and  _144
REMARK   60  A    between atoms: _143  and  _146
REMARK   61  A    between atoms: _146  and  _147
REMARK   62  A    between atoms: _147  and  _148
REMARK   63  A    between atoms: _148  and  _149
REMARK   64  A    between atoms: _158  and  _160
REMARK   65  A    between atoms: _160  and  _161
REMARK   66  A    between atoms: _160  and  _163
REMARK   67  A    between atoms: _163  and  _164
REMARK   68  A    between atoms: _164  and  _165
REMARK   69  A    between atoms: _168  and  _170
REMARK   70  A    between atoms: _170  and  _171
REMARK   71  A    between atoms: _170  and  _173
REMARK   72  A    between atoms: _173  and  _174
REMARK   73  A    between atoms: _177  and  _179
REMARK   74  A    between atoms: _179  and  _180
REMARK   75  A    between atoms: _179  and  _182
REMARK   76  A    between atoms: _182  and  _183
REMARK   77  A    between atoms: _185  and  _187
REMARK   78  A    between atoms: _187  and  _188
REMARK   79  A    between atoms: _187  and  _190
REMARK   80  A    between atoms: _190  and  _191
REMARK   81  A    between atoms: _196  and  _198
REMARK   82  A    between atoms: _198  and  _199
REMARK   83  A    between atoms: _198  and  _201
REMARK   84  A    between atoms: _201  and  _202
REMARK   85  A    between atoms: _205  and  _207
REMARK   86  A    between atoms: _207  and  _208
REMARK   87  A    between atoms: _207  and  _210
REMARK   88  A    between atoms: _210  and  _211
REMARK   89  A    between atoms: _211  and  _212
REMARK   90  A    between atoms: _214  and  _216
REMARK   91  A    between atoms: _216  and  _217
REMARK   92  A    between atoms: _216  and  _219
REMARK   93  A    between atoms: _219  and  _220
REMARK   94  A    between atoms: _220  and  _221
REMARK   95  A    between atoms: _221  and  _222
REMARK   96  A    between atoms: _222  and  _223
REMARK   97  A    between atoms: _227  and  _229
REMARK   98  A    between atoms: _229  and  _230
REMARK   99  A    between atoms: _229  and  _232
REMARK  100  A    between atoms: _232  and  _233
REMARK  101  A    between atoms: _233  and  _234
REMARK  102  A    between atoms: _234  and  _235
REMARK  103  A    between atoms: _244  and  _246
REMARK  104  A    between atoms: _246  and  _247
REMARK  105  A    between atoms: _246  and  _249
REMARK  106  A    between atoms: _249  and  _250
REMARK  107  A    between atoms: _253  and  _255
REMARK  108  A    between atoms: _255  and  _256
REMARK  109  A    between atoms: _255  and  _258
REMARK  110  A    between atoms: _258  and  _259
REMARK  111  A    between atoms: _264  and  _266
REMARK  112  A    between atoms: _266  and  _267
REMARK  113  A    between atoms: _266  and  _269
REMARK  114  A    between atoms: _269  and  _270
REMARK  115  A    between atoms: _270  and  _271
REMARK  116  A    between atoms: _271  and  _272
REMARK  117  A    between atoms: _272  and  _273
REMARK  118  A    between atoms: _277  and  _279
REMARK  119  A    between atoms: _279  and  _280
REMARK  120  A    between atoms: _279  and  _282
REMARK  121  A    between atoms: _282  and  _283
REMARK  122  A    between atoms: _288  and  _290
REMARK  123  A    between atoms: _290  and  _291
REMARK  124  A    between atoms: _290  and  _293
REMARK  125  A    between atoms: _293  and  _294
REMARK  126  A    between atoms: _294  and  _295
REMARK  127  A    between atoms: _295  and  _296
REMARK  128  A    between atoms: _305  and  _307
REMARK  129  A    between atoms: _307  and  _308
REMARK  130  A    between atoms: _307  and  _310
REMARK  131  A    between atoms: _310  and  _311
REMARK  132  A    between atoms: _316  and  _318
REMARK  133  A    between atoms: _318  and  _319
REMARK  134  A    between atoms: _318  and  _321
REMARK  135  A    between atoms: _321  and  _322
REMARK  136  A    between atoms: _322  and  _323
REMARK  137  A    between atoms: _323  and  _324
REMARK  138  A    between atoms: _324  and  _325
REMARK                            x       y       z     vdW  Elec       q    Type
REMARK                         _______ _______ _______ _____ _____    ______ ____
ROOT
ATOM      1  CA  MET A   1      12.481  29.798  12.276  0.00  0.00    +0.134 C 
ENDROOT
BRANCH   1   2
ATOM      2  N   MET A   1      11.202  29.281  12.739  0.00  0.00    -0.239 NA
ATOM      3  H   MET A   1      10.598  29.865  13.352  0.00  0.00    +0.142 HD
ENDBRANCH   1   2
BRANCH   1   4
ATOM      4  C   MET A   1      13.685  29.048  12.888  0.00  0.00    +0.224 C 
ATOM      5  O   MET A   1      14.675  28.766  12.201  0.00  0.00    -0.287 OA
ENDBRANCH   1   4
BRANCH   1   6
ATOM      6  CB  MET A   1      12.633  31.267  12.592  0.00  0.00    +0.037 C 
BRANCH   6   7
ATOM      7  CG  MET A   1      13.835  31.972  11.939  0.00  0.00    +0.059 C 
BRANCH   7   8
ATOM      8  SD  MET A   1      13.736  31.883  10.074  0.00  0.00    -0.139 S 
ATOM      9  CE  MET A   1      12.342  33.001   9.699  0.00  0.00    +0.069 C 
ENDBRANCH   7   8
ENDBRANCH   6   7
ENDBRANCH   1   6
TORSDOF 5
REMARK  Name = ../refined-set-2016/1h0a/1h0a_pocket.pdb
REMARK  138 active torsions:
REMARK  status: ('A' for Active; 'I' for Inactive)
REMARK    1  A    between atoms: _1  and  _5
REMARK    2  A    between atoms: _5  and  _6
REMARK    3  A    between atoms: _5  and  _8
REMARK    4  A    between atoms: _9  and  _10
REMARK    5  A    between atoms: _12  and  _14
REMARK    6  A    between atoms: _14  and  _15
REMARK    7  A    between atoms: _14  and  _17
REMARK    8  A    between atoms: _17  and  _18
REMARK    9  A    between atoms: _21  and  _23
REMARK   10  A    between atoms: _23  and  _24
REMARK   11  A    between atoms: _23  and  _26
REMARK   12  A    between atoms: _26  and  _27
REMARK   13  A    between atoms: _29  and  _31
REMARK   14  A    between atoms: _31  and  _32
REMARK   15  A    between atoms: _31  and  _34
REMARK   16  A    between atoms: _34  and  _35
REMARK   17  A    between atoms: _37  and  _39
REMARK   18  A    between atoms: _39  and  _40
REMARK   19  A    between atoms: _39  and  _42
REMARK   20  A    between atoms: _42  and  _43
REMARK   21  A    between atoms: _46  and  _48
REMARK   22  A    between atoms: _48  and  _49
REMARK   23  A    between atoms: _48  and  _51
REMARK   24  A    between atoms: _51  and  _52
REMARK   25  A    between atoms: _52  and  _53
REMARK   26  A    between atoms: _53  and  _54
REMARK   27  A    between atoms: _63  and  _65
REMARK   28  A    between atoms: _65  and  _66
REMARK   29  A    between atoms: _65  and  _68
REMARK   30  A    between atoms: _68  and  _69
REMARK   31  A    between atoms: _69  and  _70
REMARK   32  A    between atoms: _70  and  _71
REMARK   33  A    between atoms: _80  and  _82
REMARK   34  A    between atoms: _82  and  _83
REMARK   35  A    between atoms: _82  and  _85
REMARK   36  A    between atoms: _85  and  _86
REMARK   37  A    between atoms: _86  and  _87
REMARK   38  A    between atoms: _92  and  _94
REMARK   39  A    between atoms: _94  and  _95
REMARK   40  A    between atoms: _94  and  _97
REMARK   41  A    between atoms: _97  and  _98
REMARK   42  A    between atoms: _98  and  _99
REMARK   43  A    between atoms: _99  and  _100
REMARK   44  A    between atoms: _100  and  _101
REMARK   45  A    between atoms: _105  and  _107
REMARK   46  A    between atoms: _107  and  _108
REMARK   47  A    between atoms: _107  and  _110
REMARK   48  A    between atoms: _110  and  _111
REMARK   49  A    between atoms: _116  and  _118
REMARK   50  A    between atoms: _118  and  _119
REMARK   51  A    between atoms: _118  and  _121
REMARK   52  A    between atoms: _121  and  _122
REMARK   53  A    between atoms: _127  and  _129
REMARK   54  A    between atoms: _129  and  _130
REMARK   55  A    between atoms: _129  and  _132
REMARK   56  A    between atoms: _132  and  _133
REMARK   57  A    between atoms: _138  and  _139
REMARK   58  A    between atoms: _141  and  _143
REMARK   59  A    between atoms: _143  and  _144
REMARK   60  A    between atoms: _143  and  _146
REMARK   61  A    between atoms: _146  and  _147
REMARK   62  A    between atoms: _147  and  _148
REMARK   63  A    between atoms: _148  and  _149
REMARK   64  A    between atoms: _158  and  _160
REMARK   65  A    between atoms: _160  and  _161
REMARK   66  A    between atoms: _160  and  _163
REMARK   67  A    between atoms: _163  and  _164
REMARK   68  A    between atoms: _164  and  _165
REMARK   69  A    between atoms: _168  and  _170
REMARK   70  A    between atoms: _170  and  _171
REMARK   71  A    between atoms: _170  and  _173
REMARK   72  A    between atoms: _173  and  _174
REMARK   73  A    between atoms: _177  and  _179
REMARK   74  A    between atoms: _179  and  _180
REMARK   75  A    between atoms: _179  and  _182
REMARK   76  A    between atoms: _182  and  _183
REMARK   77  A    between atoms: _185  and  _187
REMARK   78  A    between atoms: _187  and  _188
REMARK   79  A    between atoms: _187  and  _190
REMARK   80  A    between atoms: _190  and  _191
REMARK   81  A    between atoms: _196  and  _198
REMARK   82  A    between atoms: _198  and  _199
REMARK   83  A    between atoms: _198  and  _201
REMARK   84  A    between atoms: _201  and  _202
REMARK   85  A    between atoms: _205  and  _207
REMARK   86  A    between atoms: _207  and  _208
REMARK   87  A    between atoms: _207  and  _210
REMARK   88  A    between atoms: _210  and  _211
REMARK   89  A    between atoms: _211  and  _212
REMARK   90  A    between atoms: _214  and  _216
REMARK   91  A    between atoms: _216  and  _217
REMARK   92  A    between atoms: _216  and  _219
REMARK   93  A    between atoms: _219  and  _220
REMARK   94  A    between atoms: _220  and  _221
REMARK   95  A    between atoms: _221  and  _222
REMARK   96  A    between atoms: _222  and  _223
REMARK   97  A    between atoms: _227  and  _229
REMARK   98  A    between atoms: _229  and  _230
REMARK   99  A    between atoms: _229  and  _232
REMARK  100  A    between atoms: _232  and  _233
REMARK  101  A    between atoms: _233  and  _234
REMARK  102  A    between atoms: _234  and  _235
REMARK  103  A    between atoms: _244  and  _246
REMARK  104  A    between atoms: _246  and  _247
REMARK  105  A    between atoms: _246  and  _249
REMARK  106  A    between atoms: _249  and  _250
REMARK  107  A    between atoms: _253  and  _255
REMARK  108  A    between atoms: _255  and  _256
REMARK  109  A    between atoms: _255  and  _258
REMARK  110  A    between atoms: _258  and  _259
REMARK  111  A    between atoms: _264  and  _266
REMARK  112  A    between atoms: _266  and  _267
REMARK  113  A    between atoms: _266  and  _269
REMARK  114  A    between atoms: _269  and  _270
REMARK  115  A    between atoms: _270  and  _271
REMARK  116  A    between atoms: _271  and  _272
REMARK  117  A    between atoms: _272  and  _273
REMARK  118  A    between atoms: _277  and  _279
REMARK  119  A    between atoms: _279  and  _280
REMARK  120  A    between atoms: _279  and  _282
REMARK  121  A    between atoms: _282  and  _283
REMARK  122  A    between atoms: _288  and  _290
REMARK  123  A    between atoms: _290  and  _291
REMARK  124  A    between atoms: _290  and  _293
REMARK  125  A    between atoms: _293  and  _294
REMARK  126  A    between atoms: _294  and  _295
REMARK  127  A    between atoms: _295  and  _296
REMARK  128  A    between atoms: _305  and  _307
REMARK  129  A    between atoms: _307  and  _308
REMARK  130  A    between atoms: _307  and  _310
REMARK  131  A    between atoms: _310  and  _311
REMARK  132  A    between atoms: _316  and  _318
REMARK  133  A    between atoms: _318  and  _319
REMARK  134  A    between atoms: _318  and  _321
REMARK  135  A    between atoms: _321  and  _322
REMARK  136  A    between atoms: _322  and  _323
REMARK  137  A    between atoms: _323  and  _324
REMARK  138  A    between atoms: _324  and  _325
REMARK                            x       y       z     vdW  Elec       q    Type
REMARK                         _______ _______ _______ _____ _____    ______ ____
ROOT
ATOM      1  C   LYS A   1      16.105  26.320   9.706  0.00  0.00    +0.238 C 
ATOM      2  N   ARG A   2      16.577  27.062  10.703  0.00  0.00    -0.298 N 
ATOM      3  H   ARG A   2      15.906  27.499  11.367  0.00  0.00    +0.150 HD
ATOM      4  O   LYS A   1      16.862  25.753   8.882  0.00  0.00    -0.274 OA
ENDROOT
BRANCH   1   5
ATOM      5  CA  LYS A   1      14.613  26.207   9.585  0.00  0.00    +0.145 C 
BRANCH   5   6
ATOM      6  N   LYS A   1      13.982  25.909  10.817  0.00  0.00    -0.238 NA
ATOM      7  H   LYS A   1      13.250  26.553  11.179  0.00  0.00    +0.142 HD
ENDBRANCH   5   6
BRANCH   5   8
ATOM      8  CB  LYS A   1      14.053  27.515   8.949  0.00  0.00    +0.026 C 
BRANCH   8   9
ATOM      9  CG  LYS A   1      12.593  27.412   8.362  0.00  0.00    -0.000 C 
BRANCH   9  10
ATOM     10  CD  LYS A   1      12.134  28.788   7.681  0.00  0.00    -0.024 C 
BRANCH  10  11
ATOM     11  CE  LYS A   1      10.569  28.914   7.304  0.00  0.00    -0.086 C 
BRANCH  11  12
ATOM     12  NZ  LYS A   1      10.014  30.447   7.129  0.00  0.00    +0.380 N 
ATOM     13  HZ1 LYS A   1      10.147  30.966   8.020  0.00  0.00    -0.089 HD
ATOM     14  HZ2 LYS A   1       9.003  30.423   6.888  0.00  0.00    -0.089 HD
ATOM     15  HZ3 LYS A   1      10.541  30.921   6.368  0.00  0.00    -0.089 HD
ENDBRANCH  11  12
ENDBRANCH  10  11
ENDBRANCH   9  10
ENDBRANCH   8   9
ENDBRANCH   5   8
ENDBRANCH   1   5
BRANCH   2  16
ATOM     16  CA  ARG A   2      17.976  27.278  10.891  0.00  0.00    +0.137 C 
BRANCH  16  17
ATOM     17  C   ARG A   2      18.751  25.992  11.269  0.00  0.00    +0.227 C 
ATOM     18  O   ARG A   2      19.884  25.752  10.762  0.00  0.00    -0.286 OA
ENDBRANCH  16  17
BRANCH  16  19
ATOM     19  CB  ARG A   2      18.251  28.392  11.929  0.00  0.00    +0.031 C 
BRANCH  19  20
ATOM     20  CG  ARG A   2      17.957  29.705  11.403  0.00  0.00    +0.045 C 
BRANCH  20  21
ATOM     21  CD  ARG A   2      19.185  30.247  10.780  0.00  0.00    +0.174 C 
BRANCH  21  22
ATOM     22  NE  ARG A   2      19.066  31.138   9.642  0.00  0.00    -0.265 N 
ATOM     23  CZ  ARG A   2      19.391  32.355   9.672  0.00  0.00    +0.342 C 
ATOM     24  NH2 ARG A   2      19.607  32.953  10.788  0.00  0.00    -0.292 N 
ATOM     25 HH21 ARG A   2      19.514  32.432  11.683  0.00  0.00    +0.255 HD
ATOM     26 HH22 ARG A   2      19.875  33.958  10.796  0.00  0.00    +0.255 HD
ATOM     27  NH1 ARG A   2      19.380  33.005   8.571  0.00  0.00    -0.292 N 
ATOM     28 HH11 ARG A   2      19.643  34.011   8.559  0.00  0.00    +0.255 HD
ATOM     29 HH12 ARG A   2      19.108  32.527   7.688  0.00  0.00    +0.255 HD
ATOM     30  HE  ARG A   2      18.692  30.751   8.752  0.00  0.00    +0.259 HD
ENDBRANCH  21  22
ENDBRANCH  20  21
ENDBRANCH  19  20
ENDBRANCH  16  19
ENDBRANCH   2  16
TORSDOF 13
REMARK  Name = ../refined-set-2016/1h0a/1h0a_pocket.pdb
REMARK  138 active torsions:
REMARK  status: ('A' for Active; 'I' for Inactive)
REMARK    1  A    between atoms: _1  and  _5
REMARK    2  A    between atoms: _5  and  _6
REMARK    3  A    between atoms: _5  and  _8
REMARK    4  A    between atoms: _9  and  _10
REMARK    5  A    between atoms: _12  and  _14
REMARK    6  A    between atoms: _14  and  _15
REMARK    7  A    between atoms: _14  and  _17
REMARK    8  A    between atoms: _17  and  _18
REMARK    9  A    between atoms: _21  and  _23
REMARK   10  A    between atoms: _23  and  _24
REMARK   11  A    between atoms: _23  and  _26
REMARK   12  A    between atoms: _26  and  _27
REMARK   13  A    between atoms: _29  and  _31
REMARK   14  A    between atoms: _31  and  _32
REMARK   15  A    between atoms: _31  and  _34
REMARK   16  A    between atoms: _34  and  _35
REMARK   17  A    between atoms: _37  and  _39
REMARK   18  A    between atoms: _39  and  _40
REMARK   19  A    between atoms: _39  and  _42
REMARK   20  A    between atoms: _42  and  _43
REMARK   21  A    between atoms: _46  and  _48
REMARK   22  A    between atoms: _48  and  _49
REMARK   23  A    between atoms: _48  and  _51
REMARK   24  A    between atoms: _51  and  _52
REMARK   25  A    between atoms: _52  and  _53
REMARK   26  A    between atoms: _53  and  _54
REMARK   27  A    between atoms: _63  and  _65
REMARK   28  A    between atoms: _65  and  _66
REMARK   29  A    between atoms: _65  and  _68
REMARK   30  A    between atoms: _68  and  _69
REMARK   31  A    between atoms: _69  and  _70
REMARK   32  A    between atoms: _70  and  _71
REMARK   33  A    between atoms: _80  and  _82
REMARK   34  A    between atoms: _82  and  _83
REMARK   35  A    between atoms: _82  and  _85
REMARK   36  A    between atoms: _85  and  _86
REMARK   37  A    between atoms: _86  and  _87
REMARK   38  A    between atoms: _92  and  _94
REMARK   39  A    between atoms: _94  and  _95
REMARK   40  A    between atoms: _94  and  _97
REMARK   41  A    between atoms: _97  and  _98
REMARK   42  A    between atoms: _98  and  _99
REMARK   43  A    between atoms: _99  and  _100
REMARK   44  A    between atoms: _100  and  _101
REMARK   45  A    between atoms: _105  and  _107
REMARK   46  A    between atoms: _107  and  _108
REMARK   47  A    between atoms: _107  and  _110
REMARK   48  A    between atoms: _110  and  _111
REMARK   49  A    between atoms: _116  and  _118
REMARK   50  A    between atoms: _118  and  _119
REMARK   51  A    between atoms: _118  and  _121
REMARK   52  A    between atoms: _121  and  _122
REMARK   53  A    between atoms: _127  and  _129
REMARK   54  A    between atoms: _129  and  _130
REMARK   55  A    between atoms: _129  and  _132
REMARK   56  A    between atoms: _132  and  _133
REMARK   57  A    between atoms: _138  and  _139
REMARK   58  A    between atoms: _141  and  _143
REMARK   59  A    between atoms: _143  and  _144
REMARK   60  A    between atoms: _143  and  _146
REMARK   61  A    between atoms: _146  and  _147
REMARK   62  A    between atoms: _147  and  _148
REMARK   63  A    between atoms: _148  and  _149
REMARK   64  A    between atoms: _158  and  _160
REMARK   65  A    between atoms: _160  and  _161
REMARK   66  A    between atoms: _160  and  _163
REMARK   67  A    between atoms: _163  and  _164
REMARK   68  A    between atoms: _164  and  _165
REMARK   69  A    between atoms: _168  and  _170
REMARK   70  A    between atoms: _170  and  _171
REMARK   71  A    between atoms: _170  and  _173
REMARK   72  A    between atoms: _173  and  _174
REMARK   73  A    between atoms: _177  and  _179
REMARK   74  A    between atoms: _179  and  _180
REMARK   75  A    between atoms: _179  and  _182
REMARK   76  A    between atoms: _182  and  _183
REMARK   77  A    between atoms: _185  and  _187
REMARK   78  A    between atoms: _187  and  _188
REMARK   79  A    between atoms: _187  and  _190
REMARK   80  A    between atoms: _190  and  _191
REMARK   81  A    between atoms: _196  and  _198
REMARK   82  A    between atoms: _198  and  _199
REMARK   83  A    between atoms: _198  and  _201
REMARK   84  A    between atoms: _201  and  _202
REMARK   85  A    between atoms: _205  and  _207
REMARK   86  A    between atoms: _207  and  _208
REMARK   87  A    between atoms: _207  and  _210
REMARK   88  A    between atoms: _210  and  _211
REMARK   89  A    between atoms: _211  and  _212
REMARK   90  A    between atoms: _214  and  _216
REMARK   91  A    between atoms: _216  and  _217
REMARK   92  A    between atoms: _216  and  _219
REMARK   93  A    between atoms: _219  and  _220
REMARK   94  A    between atoms: _220  and  _221
REMARK   95  A    between atoms: _221  and  _222
REMARK   96  A    between atoms: _222  and  _223
REMARK   97  A    between atoms: _227  and  _229
REMARK   98  A    between atoms: _229  and  _230
REMARK   99  A    between atoms: _229  and  _232
REMARK  100  A    between atoms: _232  and  _233
REMARK  101  A    between atoms: _233  and  _234
REMARK  102  A    between atoms: _234  and  _235
REMARK  103  A    between atoms: _244  and  _246
REMARK  104  A    between atoms: _246  and  _247
REMARK  105  A    between atoms: _246  and  _249
REMARK  106  A    between atoms: _249  and  _250
REMARK  107  A    between atoms: _253  and  _255
REMARK  108  A    between atoms: _255  and  _256
REMARK  109  A    between atoms: _255  and  _258
REMARK  110  A    between atoms: _258  and  _259
REMARK  111  A    between atoms: _264  and  _266
REMARK  112  A    between atoms: _266  and  _267
REMARK  113  A    between atoms: _266  and  _269
REMARK  114  A    between atoms: _269  and  _270
REMARK  115  A    between atoms: _270  and  _271
REMARK  116  A    between atoms: _271  and  _272
REMARK  117  A    between atoms: _272  and  _273
REMARK  118  A    between atoms: _277  and  _279
REMARK  119  A    between atoms: _279  and  _280
REMARK  120  A    between atoms: _279  and  _282
REMARK  121  A    between atoms: _282  and  _283
REMARK  122  A    between atoms: _288  and  _290
REMARK  123  A    between atoms: _290  and  _291
REMARK  124  A    between atoms: _290  and  _293
REMARK  125  A    between atoms: _293  and  _294
REMARK  126  A    between atoms: _294  and  _295
REMARK  127  A    between atoms: _295  and  _296
REMARK  128  A    between atoms: _305  and  _307
REMARK  129  A    between atoms: _307  and  _308
REMARK  130  A    between atoms: _307  and  _310
REMARK  131  A    between atoms: _310  and  _311
REMARK  132  A    between atoms: _316  and  _318
REMARK  133  A    between atoms: _318  and  _319
REMARK  134  A    between atoms: _318  and  _321
REMARK  135  A    between atoms: _321  and  _322
REMARK  136  A    between atoms: _322  and  _323
REMARK  137  A    between atoms: _323  and  _324
REMARK  138  A    between atoms: _324  and  _325
REMARK                            x       y       z     vdW  Elec       q    Type
REMARK                         _______ _______ _______ _____ _____    ______ ____
ROOT
ATOM      1  C   ASP A   1      22.184  23.328   7.274  0.00  0.00    +0.239 C 
ATOM      2  O   ASP A   1      22.278  22.311   8.009  0.00  0.00    -0.274 OA
ATOM      3  N   HIS A   2      23.089  23.603   6.362  0.00  0.00    -0.298 N 
ATOM      4  H   HIS A   2      23.040  24.509   5.854  0.00  0.00    +0.150 HD
ENDROOT
BRANCH   1   5
ATOM      5  CA  ASP A   1      20.966  24.284   7.348  0.00  0.00    +0.156 C 
BRANCH   5   6
ATOM      6  N   ASP A   1      19.953  23.795   8.260  0.00  0.00    -0.238 NA
ATOM      7  H   ASP A   1      19.848  24.241   9.194  0.00  0.00    +0.142 HD
ENDBRANCH   5   6
BRANCH   5   8
ATOM      8  CB  ASP A   1      21.404  25.688   7.699  0.00  0.00    +0.140 C 
BRANCH   8   9
ATOM      9  CG  ASP A   1      21.536  26.553   6.472  0.00  0.00    +0.367 C 
ATOM     10  OD2 ASP A   1      21.257  27.770   6.571  0.00  0.00    -0.246 OA
ATOM     11  OD1 ASP A   1      21.906  26.000   5.369  0.00  0.00    -0.246 OA
ENDBRANCH   8   9
ENDBRANCH   5   8
ENDBRANCH   1   5
BRANCH   3  12
ATOM     12  CA  HIS A   2      24.163  22.662   6.047  0.00  0.00    +0.143 C 
BRANCH  12  13
ATOM     13  C   HIS A   2      25.472  23.324   5.722  0.00  0.00    +0.227 C 
ATOM     14  O   HIS A   2      25.552  24.542   5.459  0.00  0.00    -0.286 OA
ENDBRANCH  12  13
BRANCH  12  15
ATOM     15  CB  HIS A   2      23.832  21.692   4.853  0.00  0.00    +0.075 C 
BRANCH  15  16
ATOM     16  CG  HIS A   2      22.525  20.964   4.953  0.00  0.00    +0.082 A 
ATOM     17  CD2 HIS A   2      21.280  21.396   5.269  0.00  0.00    +0.115 A 
ATOM     18  NE2 HIS A   2      20.429  20.326   5.150  0.00  0.00    -0.221 NA
ATOM     19  CE1 HIS A   2      21.112  19.280   4.727  0.00  0.00    +0.199 A 
ATOM     20  ND1 HIS A   2      22.378  19.634   4.594  0.00  0.00    -0.227 NA
ENDBRANCH  15  16
ENDBRANCH  12  15
ENDBRANCH   3  12
TORSDOF 8
REMARK  Name = ../refined-set-2016/1h0a/1h0a_pocket.pdb
REMARK  138 active torsions:
REMARK  status: ('A' for Active; 'I' for Inactive)
REMARK    1  A    between atoms: _1  and  _5
REMARK    2  A    between atoms: _5  and  _6
REMARK    3  A    between atoms: _5  and  _8
REMARK    4  A    between atoms: _9  and  _10
REMARK    5  A    between atoms: _12  and  _14
REMARK    6  A    between atoms: _14  and  _15
REMARK    7  A    between atoms: _14  and  _17
REMARK    8  A    between atoms: _17  and  _18
REMARK    9  A    between atoms: _21  and  _23
REMARK   10  A    between atoms: _23  and  _24
REMARK   11  A    between atoms: _23  and  _26
REMARK   12  A    between atoms: _26  and  _27
REMARK   13  A    between atoms: _29  and  _31
REMARK   14  A    between atoms: _31  and  _32
REMARK   15  A    between atoms: _31  and  _34
REMARK   16  A    between atoms: _34  and  _35
REMARK   17  A    between atoms: _37  and  _39
REMARK   18  A    between atoms: _39  and  _40
REMARK   19  A    between atoms: _39  and  _42
REMARK   20  A    between atoms: _42  and  _43
REMARK   21  A    between atoms: _46  and  _48
REMARK   22  A    between atoms: _48  and  _49
REMARK   23  A    between atoms: _48  and  _51
REMARK   24  A    between atoms: _51  and  _52
REMARK   25  A    between atoms: _52  and  _53
REMARK   26  A    between atoms: _53  and  _54
REMARK   27  A    between atoms: _63  and  _65
REMARK   28  A    between atoms: _65  and  _66
REMARK   29  A    between atoms: _65  and  _68
REMARK   30  A    between atoms: _68  and  _69
REMARK   31  A    between atoms: _69  and  _70
REMARK   32  A    between atoms: _70  and  _71
REMARK   33  A    between atoms: _80  and  _82
REMARK   34  A    between atoms: _82  and  _83
REMARK   35  A    between atoms: _82  and  _85
REMARK   36  A    between atoms: _85  and  _86
REMARK   37  A    between atoms: _86  and  _87
REMARK   38  A    between atoms: _92  and  _94
REMARK   39  A    between atoms: _94  and  _95
REMARK   40  A    between atoms: _94  and  _97
REMARK   41  A    between atoms: _97  and  _98
REMARK   42  A    between atoms: _98  and  _99
REMARK   43  A    between atoms: _99  and  _100
REMARK   44  A    between atoms: _100  and  _101
REMARK   45  A    between atoms: _105  and  _107
REMARK   46  A    between atoms: _107  and  _108
REMARK   47  A    between atoms: _107  and  _110
REMARK   48  A    between atoms: _110  and  _111
REMARK   49  A    between atoms: _116  and  _118
REMARK   50  A    between atoms: _118  and  _119
REMARK   51  A    between atoms: _118  and  _121
REMARK   52  A    between atoms: _121  and  _122
REMARK   53  A    between atoms: _127  and  _129
REMARK   54  A    between atoms: _129  and  _130
REMARK   55  A    between atoms: _129  and  _132
REMARK   56  A    between atoms: _132  and  _133
REMARK   57  A    between atoms: _138  and  _139
REMARK   58  A    between atoms: _141  and  _143
REMARK   59  A    between atoms: _143  and  _144
REMARK   60  A    between atoms: _143  and  _146
REMARK   61  A    between atoms: _146  and  _147
REMARK   62  A    between atoms: _147  and  _148
REMARK   63  A    between atoms: _148  and  _149
REMARK   64  A    between atoms: _158  and  _160
REMARK   65  A    between atoms: _160  and  _161
REMARK   66  A    between atoms: _160  and  _163
REMARK   67  A    between atoms: _163  and  _164
REMARK   68  A    between atoms: _164  and  _165
REMARK   69  A    between atoms: _168  and  _170
REMARK   70  A    between atoms: _170  and  _171
REMARK   71  A    between atoms: _170  and  _173
REMARK   72  A    between atoms: _173  and  _174
REMARK   73  A    between atoms: _177  and  _179
REMARK   74  A    between atoms: _179  and  _180
REMARK   75  A    between atoms: _179  and  _182
REMARK   76  A    between atoms: _182  and  _183
REMARK   77  A    between atoms: _185  and  _187
REMARK   78  A    between atoms: _187  and  _188
REMARK   79  A    between atoms: _187  and  _190
REMARK   80  A    between atoms: _190  and  _191
REMARK   81  A    between atoms: _196  and  _198
REMARK   82  A    between atoms: _198  and  _199
REMARK   83  A    between atoms: _198  and  _201
REMARK   84  A    between atoms: _201  and  _202
REMARK   85  A    between atoms: _205  and  _207
REMARK   86  A    between atoms: _207  and  _208
REMARK   87  A    between atoms: _207  and  _210
REMARK   88  A    between atoms: _210  and  _211
REMARK   89  A    between atoms: _211  and  _212
REMARK   90  A    between atoms: _214  and  _216
REMARK   91  A    between atoms: _216  and  _217
REMARK   92  A    between atoms: _216  and  _219
REMARK   93  A    between atoms: _219  and  _220
REMARK   94  A    between atoms: _220  and  _221
REMARK   95  A    between atoms: _221  and  _222
REMARK   96  A    between atoms: _222  and  _223
REMARK   97  A    between atoms: _227  and  _229
REMARK   98  A    between atoms: _229  and  _230
REMARK   99  A    between atoms: _229  and  _232
REMARK  100  A    between atoms: _232  and  _233
REMARK  101  A    between atoms: _233  and  _234
REMARK  102  A    between atoms: _234  and  _235
REMARK  103  A    between atoms: _244  and  _246
REMARK  104  A    between atoms: _246  and  _247
REMARK  105  A    between atoms: _246  and  _249
REMARK  106  A    between atoms: _249  and  _250
REMARK  107  A    between atoms: _253  and  _255
REMARK  108  A    between atoms: _255  and  _256
REMARK  109  A    between atoms: _255  and  _258
REMARK  110  A    between atoms: _258  and  _259
REMARK  111  A    between atoms: _264  and  _266
REMARK  112  A    between atoms: _266  and  _267
REMARK  113  A    between atoms: _266  and  _269
REMARK  114  A    between atoms: _269  and  _270
REMARK  115  A    between atoms: _270  and  _271
REMARK  116  A    between atoms: _271  and  _272
REMARK  117  A    between atoms: _272  and  _273
REMARK  118  A    between atoms: _277  and  _279
REMARK  119  A    between atoms: _279  and  _280
REMARK  120  A    between atoms: _279  and  _282
REMARK  121  A    between atoms: _282  and  _283
REMARK  122  A    between atoms: _288  and  _290
REMARK  123  A    between atoms: _290  and  _291
REMARK  124  A    between atoms: _290  and  _293
REMARK  125  A    between atoms: _293  and  _294
REMARK  126  A    between atoms: _294  and  _295
REMARK  127  A    between atoms: _295  and  _296
REMARK  128  A    between atoms: _305  and  _307
REMARK  129  A    between atoms: _307  and  _308
REMARK  130  A    between atoms: _307  and  _310
REMARK  131  A    between atoms: _310  and  _311
REMARK  132  A    between atoms: _316  and  _318
REMARK  133  A    between atoms: _318  and  _319
REMARK  134  A    between atoms: _318  and  _321
REMARK  135  A    between atoms: _321  and  _322
REMARK  136  A    between atoms: _322  and  _323
REMARK  137  A    between atoms: _323  and  _324
REMARK  138  A    between atoms: _324  and  _325
REMARK                            x       y       z     vdW  Elec       q    Type
REMARK                         _______ _______ _______ _____ _____    ______ ____
ROOT
ATOM      1  C   LYS A   1      28.346  27.343   6.195  0.00  0.00    +0.238 C 
ATOM      2  O   LYS A   1      28.834  28.277   6.732  0.00  0.00    -0.274 OA
ATOM      3  N   ASN A   2      27.067  27.038   6.277  0.00  0.00    -0.298 N 
ATOM      4  H   ASN A   2      26.714  26.250   5.698  0.00  0.00    +0.150 HD
ENDROOT
BRANCH   1   5
ATOM      5  CA  LYS A   1      29.248  26.448   5.311  0.00  0.00    +0.145 C 
BRANCH   5   6
ATOM      6  N   LYS A   1      28.632  25.228   4.876  0.00  0.00    -0.238 NA
ATOM      7  H   LYS A   1      28.402  25.080   3.873  0.00  0.00    +0.142 HD
ENDBRANCH   5   6
BRANCH   5   8
ATOM      8  CB  LYS A   1      29.689  27.249   4.090  0.00  0.00    +0.026 C 
BRANCH   8   9
ATOM      9  CG  LYS A   1      28.552  27.546   3.141  0.00  0.00    -0.000 C 
BRANCH   9  10
ATOM     10  CD  LYS A   1      28.102  28.915   3.394  0.00  0.00    -0.024 C 
BRANCH  10  11
ATOM     11  CE  LYS A   1      27.213  29.407   2.260  0.00  0.00    -0.086 C 
BRANCH  11  12
ATOM     12  NZ  LYS A   1      26.424  30.621   2.641  0.00  0.00    +0.380 N 
ATOM     13  HZ1 LYS A   1      25.815  30.396   3.454  0.00  0.00    -0.089 HD
ATOM     14  HZ2 LYS A   1      27.076  31.390   2.897  0.00  0.00    -0.089 HD
ATOM     15  HZ3 LYS A   1      25.835  30.917   1.836  0.00  0.00    -0.089 HD
ENDBRANCH  11  12
ENDBRANCH  10  11
ENDBRANCH   9  10
ENDBRANCH   8   9
ENDBRANCH   5   8
ENDBRANCH   1   5
BRANCH   3  16
ATOM     16  CA  ASN A   2      26.116  27.742   7.133  0.00  0.00    +0.146 C 
BRANCH  16  17
ATOM     17  C   ASN A   2      26.014  27.018   8.529  0.00  0.00    +0.227 C 
ATOM     18  O   ASN A   2      24.989  27.152   9.213  0.00  0.00    -0.286 OA
ENDBRANCH  16  17
BRANCH  16  19
ATOM     19  CB  ASN A   2      24.741  27.755   6.467  0.00  0.00    +0.112 C 
BRANCH  19  20
ATOM     20  CG  ASN A   2      24.665  28.703   5.262  0.00  0.00    +0.222 C 
ATOM     21  OD1 ASN A   2      25.351  29.708   5.203  0.00  0.00    -0.275 OA
ATOM     22  ND2 ASN A   2      23.735  28.383   4.344  0.00  0.00    -0.329 N 
ATOM     23 HD21 ASN A   2      23.180  27.510   4.449  0.00  0.00    +0.145 HD
ATOM     24 HD22 ASN A   2      23.571  29.009   3.530  0.00  0.00    +0.145 HD
ENDBRANCH  19  20
ENDBRANCH  16  19
ENDBRANCH   3  16
TORSDOF 11
REMARK  Name = ../refined-set-2016/1h0a/1h0a_pocket.pdb
REMARK  138 active torsions:
REMARK  status: ('A' for Active; 'I' for Inactive)
REMARK    1  A    between atoms: _1  and  _5
REMARK    2  A    between atoms: _5  and  _6
REMARK    3  A    between atoms: _5  and  _8
REMARK    4  A    between atoms: _9  and  _10
REMARK    5  A    between atoms: _12  and  _14
REMARK    6  A    between atoms: _14  and  _15
REMARK    7  A    between atoms: _14  and  _17
REMARK    8  A    between atoms: _17  and  _18
REMARK    9  A    between atoms: _21  and  _23
REMARK   10  A    between atoms: _23  and  _24
REMARK   11  A    between atoms: _23  and  _26
REMARK   12  A    between atoms: _26  and  _27
REMARK   13  A    between atoms: _29  and  _31
REMARK   14  A    between atoms: _31  and  _32
REMARK   15  A    between atoms: _31  and  _34
REMARK   16  A    between atoms: _34  and  _35
REMARK   17  A    between atoms: _37  and  _39
REMARK   18  A    between atoms: _39  and  _40
REMARK   19  A    between atoms: _39  and  _42
REMARK   20  A    between atoms: _42  and  _43
REMARK   21  A    between atoms: _46  and  _48
REMARK   22  A    between atoms: _48  and  _49
REMARK   23  A    between atoms: _48  and  _51
REMARK   24  A    between atoms: _51  and  _52
REMARK   25  A    between atoms: _52  and  _53
REMARK   26  A    between atoms: _53  and  _54
REMARK   27  A    between atoms: _63  and  _65
REMARK   28  A    between atoms: _65  and  _66
REMARK   29  A    between atoms: _65  and  _68
REMARK   30  A    between atoms: _68  and  _69
REMARK   31  A    between atoms: _69  and  _70
REMARK   32  A    between atoms: _70  and  _71
REMARK   33  A    between atoms: _80  and  _82
REMARK   34  A    between atoms: _82  and  _83
REMARK   35  A    between atoms: _82  and  _85
REMARK   36  A    between atoms: _85  and  _86
REMARK   37  A    between atoms: _86  and  _87
REMARK   38  A    between atoms: _92  and  _94
REMARK   39  A    between atoms: _94  and  _95
REMARK   40  A    between atoms: _94  and  _97
REMARK   41  A    between atoms: _97  and  _98
REMARK   42  A    between atoms: _98  and  _99
REMARK   43  A    between atoms: _99  and  _100
REMARK   44  A    between atoms: _100  and  _101
REMARK   45  A    between atoms: _105  and  _107
REMARK   46  A    between atoms: _107  and  _108
REMARK   47  A    between atoms: _107  and  _110
REMARK   48  A    between atoms: _110  and  _111
REMARK   49  A    between atoms: _116  and  _118
REMARK   50  A    between atoms: _118  and  _119
REMARK   51  A    between atoms: _118  and  _121
REMARK   52  A    between atoms: _121  and  _122
REMARK   53  A    between atoms: _127  and  _129
REMARK   54  A    between atoms: _129  and  _130
REMARK   55  A    between atoms: _129  and  _132
REMARK   56  A    between atoms: _132  and  _133
REMARK   57  A    between atoms: _138  and  _139
REMARK   58  A    between atoms: _141  and  _143
REMARK   59  A    between atoms: _143  and  _144
REMARK   60  A    between atoms: _143  and  _146
REMARK   61  A    between atoms: _146  and  _147
REMARK   62  A    between atoms: _147  and  _148
REMARK   63  A    between atoms: _148  and  _149
REMARK   64  A    between atoms: _158  and  _160
REMARK   65  A    between atoms: _160  and  _161
REMARK   66  A    between atoms: _160  and  _163
REMARK   67  A    between atoms: _163  and  _164
REMARK   68  A    between atoms: _164  and  _165
REMARK   69  A    between atoms: _168  and  _170
REMARK   70  A    between atoms: _170  and  _171
REMARK   71  A    between atoms: _170  and  _173
REMARK   72  A    between atoms: _173  and  _174
REMARK   73  A    between atoms: _177  and  _179
REMARK   74  A    between atoms: _179  and  _180
REMARK   75  A    between atoms: _179  and  _182
REMARK   76  A    between atoms: _182  and  _183
REMARK   77  A    between atoms: _185  and  _187
REMARK   78  A    between atoms: _187  and  _188
REMARK   79  A    between atoms: _187  and  _190
REMARK   80  A    between atoms: _190  and  _191
REMARK   81  A    between atoms: _196  and  _198
REMARK   82  A    between atoms: _198  and  _199
REMARK   83  A    between atoms: _198  and  _201
REMARK   84  A    between atoms: _201  and  _202
REMARK   85  A    between atoms: _205  and  _207
REMARK   86  A    between atoms: _207  and  _208
REMARK   87  A    between atoms: _207  and  _210
REMARK   88  A    between atoms: _210  and  _211
REMARK   89  A    between atoms: _211  and  _212
REMARK   90  A    between atoms: _214  and  _216
REMARK   91  A    between atoms: _216  and  _217
REMARK   92  A    between atoms: _216  and  _219
REMARK   93  A    between atoms: _219  and  _220
REMARK   94  A    between atoms: _220  and  _221
REMARK   95  A    between atoms: _221  and  _222
REMARK   96  A    between atoms: _222  and  _223
REMARK   97  A    between atoms: _227  and  _229
REMARK   98  A    between atoms: _229  and  _230
REMARK   99  A    between atoms: _229  and  _232
REMARK  100  A    between atoms: _232  and  _233
REMARK  101  A    between atoms: _233  and  _234
REMARK  102  A    between atoms: _234  and  _235
REMARK  103  A    between atoms: _244  and  _246
REMARK  104  A    between atoms: _246  and  _247
REMARK  105  A    between atoms: _246  and  _249
REMARK  106  A    between atoms: _249  and  _250
REMARK  107  A    between atoms: _253  and  _255
REMARK  108  A    between atoms: _255  and  _256
REMARK  109  A    between atoms: _255  and  _258
REMARK  110  A    between atoms: _258  and  _259
REMARK  111  A    between atoms: _264  and  _266
REMARK  112  A    between atoms: _266  and  _267
REMARK  113  A    between atoms: _266  and  _269
REMARK  114  A    between atoms: _269  and  _270
REMARK  115  A    between atoms: _270  and  _271
REMARK  116  A    between atoms: _271  and  _272
REMARK  117  A    between atoms: _272  and  _273
REMARK  118  A    between atoms: _277  and  _279
REMARK  119  A    between atoms: _279  and  _280
REMARK  120  A    between atoms: _279  and  _282
REMARK  121  A    between atoms: _282  and  _283
REMARK  122  A    between atoms: _288  and  _290
REMARK  123  A    between atoms: _290  and  _291
REMARK  124  A    between atoms: _290  and  _293
REMARK  125  A    between atoms: _293  and  _294
REMARK  126  A    between atoms: _294  and  _295
REMARK  127  A    between atoms: _295  and  _296
REMARK  128  A    between atoms: _305  and  _307
REMARK  129  A    between atoms: _307  and  _308
REMARK  130  A    between atoms: _307  and  _310
REMARK  131  A    between atoms: _310  and  _311
REMARK  132  A    between atoms: _316  and  _318
REMARK  133  A    between atoms: _318  and  _319
REMARK  134  A    between atoms: _318  and  _321
REMARK  135  A    between atoms: _321  and  _322
REMARK  136  A    between atoms: _322  and  _323
REMARK  137  A    between atoms: _323  and  _324
REMARK  138  A    between atoms: _324  and  _325
REMARK                            x       y       z     vdW  Elec       q    Type
REMARK                         _______ _______ _______ _____ _____    ______ ____
ROOT
ATOM      1  CA  ARG A   1      26.866  28.574  12.512  0.00  0.00    +0.145 C 
ENDROOT
BRANCH   1   2
ATOM      2  C   ARG A   1      25.372  28.882  12.724  0.00  0.00    +0.238 C 
ATOM      3  O   ARG A   1      24.948  29.111  13.871  0.00  0.00    -0.274 OA
ATOM      4  N   HIS A   2      24.564  28.770  11.617  0.00  0.00    -0.298 N 
ATOM      5  H   HIS A   2      25.007  28.647  10.684  0.00  0.00    +0.150 HD
BRANCH   4   6
ATOM      6  CA  HIS A   2      23.119  28.817  11.701  0.00  0.00    +0.143 C 
BRANCH   6   7
ATOM      7  C   HIS A   2      22.618  27.693  12.686  0.00  0.00    +0.227 C 
ATOM      8  O   HIS A   2      21.780  27.942  13.501  0.00  0.00    -0.286 OA
ENDBRANCH   6   7
BRANCH   6   9
ATOM      9  CB  HIS A   2      22.460  28.581  10.389  0.00  0.00    +0.075 C 
BRANCH   9  10
ATOM     10  CG  HIS A   2      22.552  29.807   9.496  0.00  0.00    +0.082 A 
ATOM     11  CD2 HIS A   2      22.925  31.070   9.796  0.00  0.00    +0.115 A 
ATOM     12  NE2 HIS A   2      22.788  31.836   8.634  0.00  0.00    -0.221 NA
ATOM     13  CE1 HIS A   2      22.331  31.043   7.674  0.00  0.00    +0.199 A 
ATOM     14  ND1 HIS A   2      22.113  29.816   8.187  0.00  0.00    -0.227 NA
ENDBRANCH   9  10
ENDBRANCH   6   9
ENDBRANCH   4   6
ENDBRANCH   1   2
BRANCH   1  15
ATOM     15  N   ARG A   1      27.066  27.645  11.386  0.00  0.00    -0.238 NA
ATOM     16  H   ARG A   1      27.525  28.002  10.524  0.00  0.00    +0.142 HD
ENDBRANCH   1  15
BRANCH   1  17
ATOM     17  CB  ARG A   1      27.607  29.862  12.386  0.00  0.00    +0.030 C 
BRANCH  17  18
ATOM     18  CG  ARG A   1      29.144  29.846  12.557  0.00  0.00    +0.045 C 
BRANCH  18  19
ATOM     19  CD  ARG A   1      29.746  31.196  12.410  0.00  0.00    +0.174 C 
BRANCH  19  20
ATOM     20  NE  ARG A   1      31.181  31.084  12.135  0.00  0.00    -0.265 N 
ATOM     21  CZ  ARG A   1      32.121  31.090  13.086  0.00  0.00    +0.342 C 
ATOM     22  NH2 ARG A   1      31.806  31.215  14.369  0.00  0.00    -0.292 N 
ATOM     23 HH21 ARG A   1      32.555  31.217  15.091  0.00  0.00    +0.255 HD
ATOM     24 HH22 ARG A   1      30.810  31.311  14.653  0.00  0.00    +0.255 HD
ATOM     25  NH1 ARG A   1      33.405  30.978  12.768  0.00  0.00    -0.292 N 
ATOM     26 HH11 ARG A   1      34.128  30.984  13.515  0.00  0.00    +0.255 HD
ATOM     27 HH12 ARG A   1      33.688  30.884  11.772  0.00  0.00    +0.255 HD
ATOM     28  HE  ARG A   1      31.485  30.995  11.145  0.00  0.00    +0.259 HD
ENDBRANCH  19  20
ENDBRANCH  18  19
ENDBRANCH  17  18
ENDBRANCH   1  17
TORSDOF 10
REMARK  Name = ../refined-set-2016/1h0a/1h0a_pocket.pdb
REMARK  138 active torsions:
REMARK  status: ('A' for Active; 'I' for Inactive)
REMARK    1  A    between atoms: _1  and  _5
REMARK    2  A    between atoms: _5  and  _6
REMARK    3  A    between atoms: _5  and  _8
REMARK    4  A    between atoms: _9  and  _10
REMARK    5  A    between atoms: _12  and  _14
REMARK    6  A    between atoms: _14  and  _15
REMARK    7  A    between atoms: _14  and  _17
REMARK    8  A    between atoms: _17  and  _18
REMARK    9  A    between atoms: _21  and  _23
REMARK   10  A    between atoms: _23  and  _24
REMARK   11  A    between atoms: _23  and  _26
REMARK   12  A    between atoms: _26  and  _27
REMARK   13  A    between atoms: _29  and  _31
REMARK   14  A    between atoms: _31  and  _32
REMARK   15  A    between atoms: _31  and  _34
REMARK   16  A    between atoms: _34  and  _35
REMARK   17  A    between atoms: _37  and  _39
REMARK   18  A    between atoms: _39  and  _40
REMARK   19  A    between atoms: _39  and  _42
REMARK   20  A    between atoms: _42  and  _43
REMARK   21  A    between atoms: _46  and  _48
REMARK   22  A    between atoms: _48  and  _49
REMARK   23  A    between atoms: _48  and  _51
REMARK   24  A    between atoms: _51  and  _52
REMARK   25  A    between atoms: _52  and  _53
REMARK   26  A    between atoms: _53  and  _54
REMARK   27  A    between atoms: _63  and  _65
REMARK   28  A    between atoms: _65  and  _66
REMARK   29  A    between atoms: _65  and  _68
REMARK   30  A    between atoms: _68  and  _69
REMARK   31  A    between atoms: _69  and  _70
REMARK   32  A    between atoms: _70  and  _71
REMARK   33  A    between atoms: _80  and  _82
REMARK   34  A    between atoms: _82  and  _83
REMARK   35  A    between atoms: _82  and  _85
REMARK   36  A    between atoms: _85  and  _86
REMARK   37  A    between atoms: _86  and  _87
REMARK   38  A    between atoms: _92  and  _94
REMARK   39  A    between atoms: _94  and  _95
REMARK   40  A    between atoms: _94  and  _97
REMARK   41  A    between atoms: _97  and  _98
REMARK   42  A    between atoms: _98  and  _99
REMARK   43  A    between atoms: _99  and  _100
REMARK   44  A    between atoms: _100  and  _101
REMARK   45  A    between atoms: _105  and  _107
REMARK   46  A    between atoms: _107  and  _108
REMARK   47  A    between atoms: _107  and  _110
REMARK   48  A    between atoms: _110  and  _111
REMARK   49  A    between atoms: _116  and  _118
REMARK   50  A    between atoms: _118  and  _119
REMARK   51  A    between atoms: _118  and  _121
REMARK   52  A    between atoms: _121  and  _122
REMARK   53  A    between atoms: _127  and  _129
REMARK   54  A    between atoms: _129  and  _130
REMARK   55  A    between atoms: _129  and  _132
REMARK   56  A    between atoms: _132  and  _133
REMARK   57  A    between atoms: _138  and  _139
REMARK   58  A    between atoms: _141  and  _143
REMARK   59  A    between atoms: _143  and  _144
REMARK   60  A    between atoms: _143  and  _146
REMARK   61  A    between atoms: _146  and  _147
REMARK   62  A    between atoms: _147  and  _148
REMARK   63  A    between atoms: _148  and  _149
REMARK   64  A    between atoms: _158  and  _160
REMARK   65  A    between atoms: _160  and  _161
REMARK   66  A    between atoms: _160  and  _163
REMARK   67  A    between atoms: _163  and  _164
REMARK   68  A    between atoms: _164  and  _165
REMARK   69  A    between atoms: _168  and  _170
REMARK   70  A    between atoms: _170  and  _171
REMARK   71  A    between atoms: _170  and  _173
REMARK   72  A    between atoms: _173  and  _174
REMARK   73  A    between atoms: _177  and  _179
REMARK   74  A    between atoms: _179  and  _180
REMARK   75  A    between atoms: _179  and  _182
REMARK   76  A    between atoms: _182  and  _183
REMARK   77  A    between atoms: _185  and  _187
REMARK   78  A    between atoms: _187  and  _188
REMARK   79  A    between atoms: _187  and  _190
REMARK   80  A    between atoms: _190  and  _191
REMARK   81  A    between atoms: _196  and  _198
REMARK   82  A    between atoms: _198  and  _199
REMARK   83  A    between atoms: _198  and  _201
REMARK   84  A    between atoms: _201  and  _202
REMARK   85  A    between atoms: _205  and  _207
REMARK   86  A    between atoms: _207  and  _208
REMARK   87  A    between atoms: _207  and  _210
REMARK   88  A    between atoms: _210  and  _211
REMARK   89  A    between atoms: _211  and  _212
REMARK   90  A    between atoms: _214  and  _216
REMARK   91  A    between atoms: _216  and  _217
REMARK   92  A    between atoms: _216  and  _219
REMARK   93  A    between atoms: _219  and  _220
REMARK   94  A    between atoms: _220  and  _221
REMARK   95  A    between atoms: _221  and  _222
REMARK   96  A    between atoms: _222  and  _223
REMARK   97  A    between atoms: _227  and  _229
REMARK   98  A    between atoms: _229  and  _230
REMARK   99  A    between atoms: _229  and  _232
REMARK  100  A    between atoms: _232  and  _233
REMARK  101  A    between atoms: _233  and  _234
REMARK  102  A    between atoms: _234  and  _235
REMARK  103  A    between atoms: _244  and  _246
REMARK  104  A    between atoms: _246  and  _247
REMARK  105  A    between atoms: _246  and  _249
REMARK  106  A    between atoms: _249  and  _250
REMARK  107  A    between atoms: _253  and  _255
REMARK  108  A    between atoms: _255  and  _256
REMARK  109  A    between atoms: _255  and  _258
REMARK  110  A    between atoms: _258  and  _259
REMARK  111  A    between atoms: _264  and  _266
REMARK  112  A    between atoms: _266  and  _267
REMARK  113  A    between atoms: _266  and  _269
REMARK  114  A    between atoms: _269  and  _270
REMARK  115  A    between atoms: _270  and  _271
REMARK  116  A    between atoms: _271  and  _272
REMARK  117  A    between atoms: _272  and  _273
REMARK  118  A    between atoms: _277  and  _279
REMARK  119  A    between atoms: _279  and  _280
REMARK  120  A    between atoms: _279  and  _282
REMARK  121  A    between atoms: _282  and  _283
REMARK  122  A    between atoms: _288  and  _290
REMARK  123  A    between atoms: _290  and  _291
REMARK  124  A    between atoms: _290  and  _293
REMARK  125  A    between atoms: _293  and  _294
REMARK  126  A    between atoms: _294  and  _295
REMARK  127  A    between atoms: _295  and  _296
REMARK  128  A    between atoms: _305  and  _307
REMARK  129  A    between atoms: _307  and  _308
REMARK  130  A    between atoms: _307  and  _310
REMARK  131  A    between atoms: _310  and  _311
REMARK  132  A    between atoms: _316  and  _318
REMARK  133  A    between atoms: _318  and  _319
REMARK  134  A    between atoms: _318  and  _321
REMARK  135  A    between atoms: _321  and  _322
REMARK  136  A    between atoms: _322  and  _323
REMARK  137  A    between atoms: _323  and  _324
REMARK  138  A    between atoms: _324  and  _325
REMARK                            x       y       z     vdW  Elec       q    Type
REMARK                         _______ _______ _______ _____ _____    ______ ____
ROOT
ATOM      1  CG  LYS A   1      25.183  30.895  16.488  0.00  0.00    -0.000 C 
ENDROOT
BRANCH   1   2
ATOM      2  CB  LYS A   1      23.761  30.600  16.426  0.00  0.00    +0.025 C 
BRANCH   2   3
ATOM      3  CA  LYS A   1      23.505  29.212  17.113  0.00  0.00    +0.133 C 
BRANCH   3   4
ATOM      4  N   LYS A   1      24.141  28.162  16.396  0.00  0.00    -0.239 NA
ATOM      5  H   LYS A   1      24.480  28.319  15.425  0.00  0.00    +0.142 HD
ENDBRANCH   3   4
BRANCH   3   6
ATOM      6  C   LYS A   1      21.987  28.963  17.406  0.00  0.00    +0.224 C 
ATOM      7  O   LYS A   1      21.444  29.518  18.383  0.00  0.00    -0.287 OA
ENDBRANCH   3   6
ENDBRANCH   2   3
ENDBRANCH   1   2
BRANCH   1   8
ATOM      8  CD  LYS A   1      25.621  32.187  15.606  0.00  0.00    -0.024 C 
BRANCH   8   9
ATOM      9  CE  LYS A   1      25.456  33.482  16.184  0.00  0.00    -0.086 C 
BRANCH   9  10
ATOM     10  NZ  LYS A   1      25.886  34.535  15.116  0.00  0.00    +0.380 N 
ATOM     11  HZ1 LYS A   1      25.776  35.491  15.510  0.00  0.00    -0.089 HD
ATOM     12  HZ2 LYS A   1      26.881  34.378  14.857  0.00  0.00    -0.089 HD
ATOM     13  HZ3 LYS A   1      25.287  34.436  14.272  0.00  0.00    -0.089 HD
ENDBRANCH   9  10
ENDBRANCH   8   9
ENDBRANCH   1   8
TORSDOF 7
REMARK  Name = ../refined-set-2016/1h0a/1h0a_pocket.pdb
REMARK  138 active torsions:
REMARK  status: ('A' for Active; 'I' for Inactive)
REMARK    1  A    between atoms: _1  and  _5
REMARK    2  A    between atoms: _5  and  _6
REMARK    3  A    between atoms: _5  and  _8
REMARK    4  A    between atoms: _9  and  _10
REMARK    5  A    between atoms: _12  and  _14
REMARK    6  A    between atoms: _14  and  _15
REMARK    7  A    between atoms: _14  and  _17
REMARK    8  A    between atoms: _17  and  _18
REMARK    9  A    between atoms: _21  and  _23
REMARK   10  A    between atoms: _23  and  _24
REMARK   11  A    between atoms: _23  and  _26
REMARK   12  A    between atoms: _26  and  _27
REMARK   13  A    between atoms: _29  and  _31
REMARK   14  A    between atoms: _31  and  _32
REMARK   15  A    between atoms: _31  and  _34
REMARK   16  A    between atoms: _34  and  _35
REMARK   17  A    between atoms: _37  and  _39
REMARK   18  A    between atoms: _39  and  _40
REMARK   19  A    between atoms: _39  and  _42
REMARK   20  A    between atoms: _42  and  _43
REMARK   21  A    between atoms: _46  and  _48
REMARK   22  A    between atoms: _48  and  _49
REMARK   23  A    between atoms: _48  and  _51
REMARK   24  A    between atoms: _51  and  _52
REMARK   25  A    between atoms: _52  and  _53
REMARK   26  A    between atoms: _53  and  _54
REMARK   27  A    between atoms: _63  and  _65
REMARK   28  A    between atoms: _65  and  _66
REMARK   29  A    between atoms: _65  and  _68
REMARK   30  A    between atoms: _68  and  _69
REMARK   31  A    between atoms: _69  and  _70
REMARK   32  A    between atoms: _70  and  _71
REMARK   33  A    between atoms: _80  and  _82
REMARK   34  A    between atoms: _82  and  _83
REMARK   35  A    between atoms: _82  and  _85
REMARK   36  A    between atoms: _85  and  _86
REMARK   37  A    between atoms: _86  and  _87
REMARK   38  A    between atoms: _92  and  _94
REMARK   39  A    between atoms: _94  and  _95
REMARK   40  A    between atoms: _94  and  _97
REMARK   41  A    between atoms: _97  and  _98
REMARK   42  A    between atoms: _98  and  _99
REMARK   43  A    between atoms: _99  and  _100
REMARK   44  A    between atoms: _100  and  _101
REMARK   45  A    between atoms: _105  and  _107
REMARK   46  A    between atoms: _107  and  _108
REMARK   47  A    between atoms: _107  and  _110
REMARK   48  A    between atoms: _110  and  _111
REMARK   49  A    between atoms: _116  and  _118
REMARK   50  A    between atoms: _118  and  _119
REMARK   51  A    between atoms: _118  and  _121
REMARK   52  A    between atoms: _121  and  _122
REMARK   53  A    between atoms: _127  and  _129
REMARK   54  A    between atoms: _129  and  _130
REMARK   55  A    between atoms: _129  and  _132
REMARK   56  A    between atoms: _132  and  _133
REMARK   57  A    between atoms: _138  and  _139
REMARK   58  A    between atoms: _141  and  _143
REMARK   59  A    between atoms: _143  and  _144
REMARK   60  A    between atoms: _143  and  _146
REMARK   61  A    between atoms: _146  and  _147
REMARK   62  A    between atoms: _147  and  _148
REMARK   63  A    between atoms: _148  and  _149
REMARK   64  A    between atoms: _158  and  _160
REMARK   65  A    between atoms: _160  and  _161
REMARK   66  A    between atoms: _160  and  _163
REMARK   67  A    between atoms: _163  and  _164
REMARK   68  A    between atoms: _164  and  _165
REMARK   69  A    between atoms: _168  and  _170
REMARK   70  A    between atoms: _170  and  _171
REMARK   71  A    between atoms: _170  and  _173
REMARK   72  A    between atoms: _173  and  _174
REMARK   73  A    between atoms: _177  and  _179
REMARK   74  A    between atoms: _179  and  _180
REMARK   75  A    between atoms: _179  and  _182
REMARK   76  A    between atoms: _182  and  _183
REMARK   77  A    between atoms: _185  and  _187
REMARK   78  A    between atoms: _187  and  _188
REMARK   79  A    between atoms: _187  and  _190
REMARK   80  A    between atoms: _190  and  _191
REMARK   81  A    between atoms: _196  and  _198
REMARK   82  A    between atoms: _198  and  _199
REMARK   83  A    between atoms: _198  and  _201
REMARK   84  A    between atoms: _201  and  _202
REMARK   85  A    between atoms: _205  and  _207
REMARK   86  A    between atoms: _207  and  _208
REMARK   87  A    between atoms: _207  and  _210
REMARK   88  A    between atoms: _210  and  _211
REMARK   89  A    between atoms: _211  and  _212
REMARK   90  A    between atoms: _214  and  _216
REMARK   91  A    between atoms: _216  and  _217
REMARK   92  A    between atoms: _216  and  _219
REMARK   93  A    between atoms: _219  and  _220
REMARK   94  A    between atoms: _220  and  _221
REMARK   95  A    between atoms: _221  and  _222
REMARK   96  A    between atoms: _222  and  _223
REMARK   97  A    between atoms: _227  and  _229
REMARK   98  A    between atoms: _229  and  _230
REMARK   99  A    between atoms: _229  and  _232
REMARK  100  A    between atoms: _232  and  _233
REMARK  101  A    between atoms: _233  and  _234
REMARK  102  A    between atoms: _234  and  _235
REMARK  103  A    between atoms: _244  and  _246
REMARK  104  A    between atoms: _246  and  _247
REMARK  105  A    between atoms: _246  and  _249
REMARK  106  A    between atoms: _249  and  _250
REMARK  107  A    between atoms: _253  and  _255
REMARK  108  A    between atoms: _255  and  _256
REMARK  109  A    between atoms: _255  and  _258
REMARK  110  A    between atoms: _258  and  _259
REMARK  111  A    between atoms: _264  and  _266
REMARK  112  A    between atoms: _266  and  _267
REMARK  113  A    between atoms: _266  and  _269
REMARK  114  A    between atoms: _269  and  _270
REMARK  115  A    between atoms: _270  and  _271
REMARK  116  A    between atoms: _271  and  _272
REMARK  117  A    between atoms: _272  and  _273
REMARK  118  A    between atoms: _277  and  _279
REMARK  119  A    between atoms: _279  and  _280
REMARK  120  A    between atoms: _279  and  _282
REMARK  121  A    between atoms: _282  and  _283
REMARK  122  A    between atoms: _288  and  _290
REMARK  123  A    between atoms: _290  and  _291
REMARK  124  A    between atoms: _290  and  _293
REMARK  125  A    between atoms: _293  and  _294
REMARK  126  A    between atoms: _294  and  _295
REMARK  127  A    between atoms: _295  and  _296
REMARK  128  A    between atoms: _305  and  _307
REMARK  129  A    between atoms: _307  and  _308
REMARK  130  A    between atoms: _307  and  _310
REMARK  131  A    between atoms: _310  and  _311
REMARK  132  A    between atoms: _316  and  _318
REMARK  133  A    between atoms: _318  and  _319
REMARK  134  A    between atoms: _318  and  _321
REMARK  135  A    between atoms: _321  and  _322
REMARK  136  A    between atoms: _322  and  _323
REMARK  137  A    between atoms: _323  and  _324
REMARK  138  A    between atoms: _324  and  _325
REMARK                            x       y       z     vdW  Elec       q    Type
REMARK                         _______ _______ _______ _____ _____    ______ ____
ROOT
ATOM      1  O   HOH     1      30.223  40.560   5.218  0.00  0.00    +0.000 OA
ENDROOT
TORSDOF 0
REMARK  Name = ../refined-set-2016/1h0a/1h0a_pocket.pdb
REMARK  138 active torsions:
REMARK  status: ('A' for Active; 'I' for Inactive)
REMARK    1  A    between atoms: _1  and  _5
REMARK    2  A    between atoms: _5  and  _6
REMARK    3  A    between atoms: _5  and  _8
REMARK    4  A    between atoms: _9  and  _10
REMARK    5  A    between atoms: _12  and  _14
REMARK    6  A    between atoms: _14  and  _15
REMARK    7  A    between atoms: _14  and  _17
REMARK    8  A    between atoms: _17  and  _18
REMARK    9  A    between atoms: _21  and  _23
REMARK   10  A    between atoms: _23  and  _24
REMARK   11  A    between atoms: _23  and  _26
REMARK   12  A    between atoms: _26  and  _27
REMARK   13  A    between atoms: _29  and  _31
REMARK   14  A    between atoms: _31  and  _32
REMARK   15  A    between atoms: _31  and  _34
REMARK   16  A    between atoms: _34  and  _35
REMARK   17  A    between atoms: _37  and  _39
REMARK   18  A    between atoms: _39  and  _40
REMARK   19  A    between atoms: _39  and  _42
REMARK   20  A    between atoms: _42  and  _43
REMARK   21  A    between atoms: _46  and  _48
REMARK   22  A    between atoms: _48  and  _49
REMARK   23  A    between atoms: _48  and  _51
REMARK   24  A    between atoms: _51  and  _52
REMARK   25  A    between atoms: _52  and  _53
REMARK   26  A    between atoms: _53  and  _54
REMARK   27  A    between atoms: _63  and  _65
REMARK   28  A    between atoms: _65  and  _66
REMARK   29  A    between atoms: _65  and  _68
REMARK   30  A    between atoms: _68  and  _69
REMARK   31  A    between atoms: _69  and  _70
REMARK   32  A    between atoms: _70  and  _71
REMARK   33  A    between atoms: _80  and  _82
REMARK   34  A    between atoms: _82  and  _83
REMARK   35  A    between atoms: _82  and  _85
REMARK   36  A    between atoms: _85  and  _86
REMARK   37  A    between atoms: _86  and  _87
REMARK   38  A    between atoms: _92  and  _94
REMARK   39  A    between atoms: _94  and  _95
REMARK   40  A    between atoms: _94  and  _97
REMARK   41  A    between atoms: _97  and  _98
REMARK   42  A    between atoms: _98  and  _99
REMARK   43  A    between atoms: _99  and  _100
REMARK   44  A    between atoms: _100  and  _101
REMARK   45  A    between atoms: _105  and  _107
REMARK   46  A    between atoms: _107  and  _108
REMARK   47  A    between atoms: _107  and  _110
REMARK   48  A    between atoms: _110  and  _111
REMARK   49  A    between atoms: _116  and  _118
REMARK   50  A    between atoms: _118  and  _119
REMARK   51  A    between atoms: _118  and  _121
REMARK   52  A    between atoms: _121  and  _122
REMARK   53  A    between atoms: _127  and  _129
REMARK   54  A    between atoms: _129  and  _130
REMARK   55  A    between atoms: _129  and  _132
REMARK   56  A    between atoms: _132  and  _133
REMARK   57  A    between atoms: _138  and  _139
REMARK   58  A    between atoms: _141  and  _143
REMARK   59  A    between atoms: _143  and  _144
REMARK   60  A    between atoms: _143  and  _146
REMARK   61  A    between atoms: _146  and  _147
REMARK   62  A    between atoms: _147  and  _148
REMARK   63  A    between atoms: _148  and  _149
REMARK   64  A    between atoms: _158  and  _160
REMARK   65  A    between atoms: _160  and  _161
REMARK   66  A    between atoms: _160  and  _163
REMARK   67  A    between atoms: _163  and  _164
REMARK   68  A    between atoms: _164  and  _165
REMARK   69  A    between atoms: _168  and  _170
REMARK   70  A    between atoms: _170  and  _171
REMARK   71  A    between atoms: _170  and  _173
REMARK   72  A    between atoms: _173  and  _174
REMARK   73  A    between atoms: _177  and  _179
REMARK   74  A    between atoms: _179  and  _180
REMARK   75  A    between atoms: _179  and  _182
REMARK   76  A    between atoms: _182  and  _183
REMARK   77  A    between atoms: _185  and  _187
REMARK   78  A    between atoms: _187  and  _188
REMARK   79  A    between atoms: _187  and  _190
REMARK   80  A    between atoms: _190  and  _191
REMARK   81  A    between atoms: _196  and  _198
REMARK   82  A    between atoms: _198  and  _199
REMARK   83  A    between atoms: _198  and  _201
REMARK   84  A    between atoms: _201  and  _202
REMARK   85  A    between atoms: _205  and  _207
REMARK   86  A    between atoms: _207  and  _208
REMARK   87  A    between atoms: _207  and  _210
REMARK   88  A    between atoms: _210  and  _211
REMARK   89  A    between atoms: _211  and  _212
REMARK   90  A    between atoms: _214  and  _216
REMARK   91  A    between atoms: _216  and  _217
REMARK   92  A    between atoms: _216  and  _219
REMARK   93  A    between atoms: _219  and  _220
REMARK   94  A    between atoms: _220  and  _221
REMARK   95  A    between atoms: _221  and  _222
REMARK   96  A    between atoms: _222  and  _223
REMARK   97  A    between atoms: _227  and  _229
REMARK   98  A    between atoms: _229  and  _230
REMARK   99  A    between atoms: _229  and  _232
REMARK  100  A    between atoms: _232  and  _233
REMARK  101  A    between atoms: _233  and  _234
REMARK  102  A    between atoms: _234  and  _235
REMARK  103  A    between atoms: _244  and  _246
REMARK  104  A    between atoms: _246  and  _247
REMARK  105  A    between atoms: _246  and  _249
REMARK  106  A    between atoms: _249  and  _250
REMARK  107  A    between atoms: _253  and  _255
REMARK  108  A    between atoms: _255  and  _256
REMARK  109  A    between atoms: _255  and  _258
REMARK  110  A    between atoms: _258  and  _259
REMARK  111  A    between atoms: _264  and  _266
REMARK  112  A    between atoms: _266  and  _267
REMARK  113  A    between atoms: _266  and  _269
REMARK  114  A    between atoms: _269  and  _270
REMARK  115  A    between atoms: _270  and  _271
REMARK  116  A    between atoms: _271  and  _272
REMARK  117  A    between atoms: _272  and  _273
REMARK  118  A    between atoms: _277  and  _279
REMARK  119  A    between atoms: _279  and  _280
REMARK  120  A    between atoms: _279  and  _282
REMARK  121  A    between atoms: _282  and  _283
REMARK  122  A    between atoms: _288  and  _290
REMARK  123  A    between atoms: _290  and  _291
REMARK  124  A    between atoms: _290  and  _293
REMARK  125  A    between atoms: _293  and  _294
REMARK  126  A    between atoms: _294  and  _295
REMARK  127  A    between atoms: _295  and  _296
REMARK  128  A    between atoms: _305  and  _307
REMARK  129  A    between atoms: _307  and  _308
REMARK  130  A    between atoms: _307  and  _310
REMARK  131  A    between atoms: _310  and  _311
REMARK  132  A    between atoms: _316  and  _318
REMARK  133  A    between atoms: _318  and  _319
REMARK  134  A    between atoms: _318  and  _321
REMARK  135  A    between atoms: _321  and  _322
REMARK  136  A    between atoms: _322  and  _323
REMARK  137  A    between atoms: _323  and  _324
REMARK  138  A    between atoms: _324  and  _325
REMARK                            x       y       z     vdW  Elec       q    Type
REMARK                         _______ _______ _______ _____ _____    ______ ____
ROOT
ATOM      1  O   HOH     1      30.098  39.685   9.495  0.00  0.00    +0.000 OA
ENDROOT
TORSDOF 0
REMARK  Name = ../refined-set-2016/1h0a/1h0a_pocket.pdb
REMARK  138 active torsions:
REMARK  status: ('A' for Active; 'I' for Inactive)
REMARK    1  A    between atoms: _1  and  _5
REMARK    2  A    between atoms: _5  and  _6
REMARK    3  A    between atoms: _5  and  _8
REMARK    4  A    between atoms: _9  and  _10
REMARK    5  A    between atoms: _12  and  _14
REMARK    6  A    between atoms: _14  and  _15
REMARK    7  A    between atoms: _14  and  _17
REMARK    8  A    between atoms: _17  and  _18
REMARK    9  A    between atoms: _21  and  _23
REMARK   10  A    between atoms: _23  and  _24
REMARK   11  A    between atoms: _23  and  _26
REMARK   12  A    between atoms: _26  and  _27
REMARK   13  A    between atoms: _29  and  _31
REMARK   14  A    between atoms: _31  and  _32
REMARK   15  A    between atoms: _31  and  _34
REMARK   16  A    between atoms: _34  and  _35
REMARK   17  A    between atoms: _37  and  _39
REMARK   18  A    between atoms: _39  and  _40
REMARK   19  A    between atoms: _39  and  _42
REMARK   20  A    between atoms: _42  and  _43
REMARK   21  A    between atoms: _46  and  _48
REMARK   22  A    between atoms: _48  and  _49
REMARK   23  A    between atoms: _48  and  _51
REMARK   24  A    between atoms: _51  and  _52
REMARK   25  A    between atoms: _52  and  _53
REMARK   26  A    between atoms: _53  and  _54
REMARK   27  A    between atoms: _63  and  _65
REMARK   28  A    between atoms: _65  and  _66
REMARK   29  A    between atoms: _65  and  _68
REMARK   30  A    between atoms: _68  and  _69
REMARK   31  A    between atoms: _69  and  _70
REMARK   32  A    between atoms: _70  and  _71
REMARK   33  A    between atoms: _80  and  _82
REMARK   34  A    between atoms: _82  and  _83
REMARK   35  A    between atoms: _82  and  _85
REMARK   36  A    between atoms: _85  and  _86
REMARK   37  A    between atoms: _86  and  _87
REMARK   38  A    between atoms: _92  and  _94
REMARK   39  A    between atoms: _94  and  _95
REMARK   40  A    between atoms: _94  and  _97
REMARK   41  A    between atoms: _97  and  _98
REMARK   42  A    between atoms: _98  and  _99
REMARK   43  A    between atoms: _99  and  _100
REMARK   44  A    between atoms: _100  and  _101
REMARK   45  A    between atoms: _105  and  _107
REMARK   46  A    between atoms: _107  and  _108
REMARK   47  A    between atoms: _107  and  _110
REMARK   48  A    between atoms: _110  and  _111
REMARK   49  A    between atoms: _116  and  _118
REMARK   50  A    between atoms: _118  and  _119
REMARK   51  A    between atoms: _118  and  _121
REMARK   52  A    between atoms: _121  and  _122
REMARK   53  A    between atoms: _127  and  _129
REMARK   54  A    between atoms: _129  and  _130
REMARK   55  A    between atoms: _129  and  _132
REMARK   56  A    between atoms: _132  and  _133
REMARK   57  A    between atoms: _138  and  _139
REMARK   58  A    between atoms: _141  and  _143
REMARK   59  A    between atoms: _143  and  _144
REMARK   60  A    between atoms: _143  and  _146
REMARK   61  A    between atoms: _146  and  _147
REMARK   62  A    between atoms: _147  and  _148
REMARK   63  A    between atoms: _148  and  _149
REMARK   64  A    between atoms: _158  and  _160
REMARK   65  A    between atoms: _160  and  _161
REMARK   66  A    between atoms: _160  and  _163
REMARK   67  A    between atoms: _163  and  _164
REMARK   68  A    between atoms: _164  and  _165
REMARK   69  A    between atoms: _168  and  _170
REMARK   70  A    between atoms: _170  and  _171
REMARK   71  A    between atoms: _170  and  _173
REMARK   72  A    between atoms: _173  and  _174
REMARK   73  A    between atoms: _177  and  _179
REMARK   74  A    between atoms: _179  and  _180
REMARK   75  A    between atoms: _179  and  _182
REMARK   76  A    between atoms: _182  and  _183
REMARK   77  A    between atoms: _185  and  _187
REMARK   78  A    between atoms: _187  and  _188
REMARK   79  A    between atoms: _187  and  _190
REMARK   80  A    between atoms: _190  and  _191
REMARK   81  A    between atoms: _196  and  _198
REMARK   82  A    between atoms: _198  and  _199
REMARK   83  A    between atoms: _198  and  _201
REMARK   84  A    between atoms: _201  and  _202
REMARK   85  A    between atoms: _205  and  _207
REMARK   86  A    between atoms: _207  and  _208
REMARK   87  A    between atoms: _207  and  _210
REMARK   88  A    between atoms: _210  and  _211
REMARK   89  A    between atoms: _211  and  _212
REMARK   90  A    between atoms: _214  and  _216
REMARK   91  A    between atoms: _216  and  _217
REMARK   92  A    between atoms: _216  and  _219
REMARK   93  A    between atoms: _219  and  _220
REMARK   94  A    between atoms: _220  and  _221
REMARK   95  A    between atoms: _221  and  _222
REMARK   96  A    between atoms: _222  and  _223
REMARK   97  A    between atoms: _227  and  _229
REMARK   98  A    between atoms: _229  and  _230
REMARK   99  A    between atoms: _229  and  _232
REMARK  100  A    between atoms: _232  and  _233
REMARK  101  A    between atoms: _233  and  _234
REMARK  102  A    between atoms: _234  and  _235
REMARK  103  A    between atoms: _244  and  _246
REMARK  104  A    between atoms: _246  and  _247
REMARK  105  A    between atoms: _246  and  _249
REMARK  106  A    between atoms: _249  and  _250
REMARK  107  A    between atoms: _253  and  _255
REMARK  108  A    between atoms: _255  and  _256
REMARK  109  A    between atoms: _255  and  _258
REMARK  110  A    between atoms: _258  and  _259
REMARK  111  A    between atoms: _264  and  _266
REMARK  112  A    between atoms: _266  and  _267
REMARK  113  A    between atoms: _266  and  _269
REMARK  114  A    between atoms: _269  and  _270
REMARK  115  A    between atoms: _270  and  _271
REMARK  116  A    between atoms: _271  and  _272
REMARK  117  A    between atoms: _272  and  _273
REMARK  118  A    between atoms: _277  and  _279
REMARK  119  A    between atoms: _279  and  _280
REMARK  120  A    between atoms: _279  and  _282
REMARK  121  A    between atoms: _282  and  _283
REMARK  122  A    between atoms: _288  and  _290
REMARK  123  A    between atoms: _290  and  _291
REMARK  124  A    between atoms: _290  and  _293
REMARK  125  A    between atoms: _293  and  _294
REMARK  126  A    between atoms: _294  and  _295
REMARK  127  A    between atoms: _295  and  _296
REMARK  128  A    between atoms: _305  and  _307
REMARK  129  A    between atoms: _307  and  _308
REMARK  130  A    between atoms: _307  and  _310
REMARK  131  A    between atoms: _310  and  _311
REMARK  132  A    between atoms: _316  and  _318
REMARK  133  A    between atoms: _318  and  _319
REMARK  134  A    between atoms: _318  and  _321
REMARK  135  A    between atoms: _321  and  _322
REMARK  136  A    between atoms: _322  and  _323
REMARK  137  A    between atoms: _323  and  _324
REMARK  138  A    between atoms: _324  and  _325
REMARK                            x       y       z     vdW  Elec       q    Type
REMARK                         _______ _______ _______ _____ _____    ______ ____
ROOT
ATOM      1  O   HOH     1      30.918  39.229   7.110  0.00  0.00    +0.000 OA
ENDROOT
TORSDOF 0
REMARK  Name = ../refined-set-2016/1h0a/1h0a_pocket.pdb
REMARK  138 active torsions:
REMARK  status: ('A' for Active; 'I' for Inactive)
REMARK    1  A    between atoms: _1  and  _5
REMARK    2  A    between atoms: _5  and  _6
REMARK    3  A    between atoms: _5  and  _8
REMARK    4  A    between atoms: _9  and  _10
REMARK    5  A    between atoms: _12  and  _14
REMARK    6  A    between atoms: _14  and  _15
REMARK    7  A    between atoms: _14  and  _17
REMARK    8  A    between atoms: _17  and  _18
REMARK    9  A    between atoms: _21  and  _23
REMARK   10  A    between atoms: _23  and  _24
REMARK   11  A    between atoms: _23  and  _26
REMARK   12  A    between atoms: _26  and  _27
REMARK   13  A    between atoms: _29  and  _31
REMARK   14  A    between atoms: _31  and  _32
REMARK   15  A    between atoms: _31  and  _34
REMARK   16  A    between atoms: _34  and  _35
REMARK   17  A    between atoms: _37  and  _39
REMARK   18  A    between atoms: _39  and  _40
REMARK   19  A    between atoms: _39  and  _42
REMARK   20  A    between atoms: _42  and  _43
REMARK   21  A    between atoms: _46  and  _48
REMARK   22  A    between atoms: _48  and  _49
REMARK   23  A    between atoms: _48  and  _51
REMARK   24  A    between atoms: _51  and  _52
REMARK   25  A    between atoms: _52  and  _53
REMARK   26  A    between atoms: _53  and  _54
REMARK   27  A    between atoms: _63  and  _65
REMARK   28  A    between atoms: _65  and  _66
REMARK   29  A    between atoms: _65  and  _68
REMARK   30  A    between atoms: _68  and  _69
REMARK   31  A    between atoms: _69  and  _70
REMARK   32  A    between atoms: _70  and  _71
REMARK   33  A    between atoms: _80  and  _82
REMARK   34  A    between atoms: _82  and  _83
REMARK   35  A    between atoms: _82  and  _85
REMARK   36  A    between atoms: _85  and  _86
REMARK   37  A    between atoms: _86  and  _87
REMARK   38  A    between atoms: _92  and  _94
REMARK   39  A    between atoms: _94  and  _95
REMARK   40  A    between atoms: _94  and  _97
REMARK   41  A    between atoms: _97  and  _98
REMARK   42  A    between atoms: _98  and  _99
REMARK   43  A    between atoms: _99  and  _100
REMARK   44  A    between atoms: _100  and  _101
REMARK   45  A    between atoms: _105  and  _107
REMARK   46  A    between atoms: _107  and  _108
REMARK   47  A    between atoms: _107  and  _110
REMARK   48  A    between atoms: _110  and  _111
REMARK   49  A    between atoms: _116  and  _118
REMARK   50  A    between atoms: _118  and  _119
REMARK   51  A    between atoms: _118  and  _121
REMARK   52  A    between atoms: _121  and  _122
REMARK   53  A    between atoms: _127  and  _129
REMARK   54  A    between atoms: _129  and  _130
REMARK   55  A    between atoms: _129  and  _132
REMARK   56  A    between atoms: _132  and  _133
REMARK   57  A    between atoms: _138  and  _139
REMARK   58  A    between atoms: _141  and  _143
REMARK   59  A    between atoms: _143  and  _144
REMARK   60  A    between atoms: _143  and  _146
REMARK   61  A    between atoms: _146  and  _147
REMARK   62  A    between atoms: _147  and  _148
REMARK   63  A    between atoms: _148  and  _149
REMARK   64  A    between atoms: _158  and  _160
REMARK   65  A    between atoms: _160  and  _161
REMARK   66  A    between atoms: _160  and  _163
REMARK   67  A    between atoms: _163  and  _164
REMARK   68  A    between atoms: _164  and  _165
REMARK   69  A    between atoms: _168  and  _170
REMARK   70  A    between atoms: _170  and  _171
REMARK   71  A    between atoms: _170  and  _173
REMARK   72  A    between atoms: _173  and  _174
REMARK   73  A    between atoms: _177  and  _179
REMARK   74  A    between atoms: _179  and  _180
REMARK   75  A    between atoms: _179  and  _182
REMARK   76  A    between atoms: _182  and  _183
REMARK   77  A    between atoms: _185  and  _187
REMARK   78  A    between atoms: _187  and  _188
REMARK   79  A    between atoms: _187  and  _190
REMARK   80  A    between atoms: _190  and  _191
REMARK   81  A    between atoms: _196  and  _198
REMARK   82  A    between atoms: _198  and  _199
REMARK   83  A    between atoms: _198  and  _201
REMARK   84  A    between atoms: _201  and  _202
REMARK   85  A    between atoms: _205  and  _207
REMARK   86  A    between atoms: _207  and  _208
REMARK   87  A    between atoms: _207  and  _210
REMARK   88  A    between atoms: _210  and  _211
REMARK   89  A    between atoms: _211  and  _212
REMARK   90  A    between atoms: _214  and  _216
REMARK   91  A    between atoms: _216  and  _217
REMARK   92  A    between atoms: _216  and  _219
REMARK   93  A    between atoms: _219  and  _220
REMARK   94  A    between atoms: _220  and  _221
REMARK   95  A    between atoms: _221  and  _222
REMARK   96  A    between atoms: _222  and  _223
REMARK   97  A    between atoms: _227  and  _229
REMARK   98  A    between atoms: _229  and  _230
REMARK   99  A    between atoms: _229  and  _232
REMARK  100  A    between atoms: _232  and  _233
REMARK  101  A    between atoms: _233  and  _234
REMARK  102  A    between atoms: _234  and  _235
REMARK  103  A    between atoms: _244  and  _246
REMARK  104  A    between atoms: _246  and  _247
REMARK  105  A    between atoms: _246  and  _249
REMARK  106  A    between atoms: _249  and  _250
REMARK  107  A    between atoms: _253  and  _255
REMARK  108  A    between atoms: _255  and  _256
REMARK  109  A    between atoms: _255  and  _258
REMARK  110  A    between atoms: _258  and  _259
REMARK  111  A    between atoms: _264  and  _266
REMARK  112  A    between atoms: _266  and  _267
REMARK  113  A    between atoms: _266  and  _269
REMARK  114  A    between atoms: _269  and  _270
REMARK  115  A    between atoms: _270  and  _271
REMARK  116  A    between atoms: _271  and  _272
REMARK  117  A    between atoms: _272  and  _273
REMARK  118  A    between atoms: _277  and  _279
REMARK  119  A    between atoms: _279  and  _280
REMARK  120  A    between atoms: _279  and  _282
REMARK  121  A    between atoms: _282  and  _283
REMARK  122  A    between atoms: _288  and  _290
REMARK  123  A    between atoms: _290  and  _291
REMARK  124  A    between atoms: _290  and  _293
REMARK  125  A    between atoms: _293  and  _294
REMARK  126  A    between atoms: _294  and  _295
REMARK  127  A    between atoms: _295  and  _296
REMARK  128  A    between atoms: _305  and  _307
REMARK  129  A    between atoms: _307  and  _308
REMARK  130  A    between atoms: _307  and  _310
REMARK  131  A    between atoms: _310  and  _311
REMARK  132  A    between atoms: _316  and  _318
REMARK  133  A    between atoms: _318  and  _319
REMARK  134  A    between atoms: _318  and  _321
REMARK  135  A    between atoms: _321  and  _322
REMARK  136  A    between atoms: _322  and  _323
REMARK  137  A    between atoms: _323  and  _324
REMARK  138  A    between atoms: _324  and  _325
REMARK                            x       y       z     vdW  Elec       q    Type
REMARK                         _______ _______ _______ _____ _____    ______ ____
ROOT
ATOM      1  O   HOH     1      23.829  38.417   5.389  0.00  0.00    +0.000 OA
ENDROOT
TORSDOF 0
REMARK  Name = ../refined-set-2016/1h0a/1h0a_pocket.pdb
REMARK  138 active torsions:
REMARK  status: ('A' for Active; 'I' for Inactive)
REMARK    1  A    between atoms: _1  and  _5
REMARK    2  A    between atoms: _5  and  _6
REMARK    3  A    between atoms: _5  and  _8
REMARK    4  A    between atoms: _9  and  _10
REMARK    5  A    between atoms: _12  and  _14
REMARK    6  A    between atoms: _14  and  _15
REMARK    7  A    between atoms: _14  and  _17
REMARK    8  A    between atoms: _17  and  _18
REMARK    9  A    between atoms: _21  and  _23
REMARK   10  A    between atoms: _23  and  _24
REMARK   11  A    between atoms: _23  and  _26
REMARK   12  A    between atoms: _26  and  _27
REMARK   13  A    between atoms: _29  and  _31
REMARK   14  A    between atoms: _31  and  _32
REMARK   15  A    between atoms: _31  and  _34
REMARK   16  A    between atoms: _34  and  _35
REMARK   17  A    between atoms: _37  and  _39
REMARK   18  A    between atoms: _39  and  _40
REMARK   19  A    between atoms: _39  and  _42
REMARK   20  A    between atoms: _42  and  _43
REMARK   21  A    between atoms: _46  and  _48
REMARK   22  A    between atoms: _48  and  _49
REMARK   23  A    between atoms: _48  and  _51
REMARK   24  A    between atoms: _51  and  _52
REMARK   25  A    between atoms: _52  and  _53
REMARK   26  A    between atoms: _53  and  _54
REMARK   27  A    between atoms: _63  and  _65
REMARK   28  A    between atoms: _65  and  _66
REMARK   29  A    between atoms: _65  and  _68
REMARK   30  A    between atoms: _68  and  _69
REMARK   31  A    between atoms: _69  and  _70
REMARK   32  A    between atoms: _70  and  _71
REMARK   33  A    between atoms: _80  and  _82
REMARK   34  A    between atoms: _82  and  _83
REMARK   35  A    between atoms: _82  and  _85
REMARK   36  A    between atoms: _85  and  _86
REMARK   37  A    between atoms: _86  and  _87
REMARK   38  A    between atoms: _92  and  _94
REMARK   39  A    between atoms: _94  and  _95
REMARK   40  A    between atoms: _94  and  _97
REMARK   41  A    between atoms: _97  and  _98
REMARK   42  A    between atoms: _98  and  _99
REMARK   43  A    between atoms: _99  and  _100
REMARK   44  A    between atoms: _100  and  _101
REMARK   45  A    between atoms: _105  and  _107
REMARK   46  A    between atoms: _107  and  _108
REMARK   47  A    between atoms: _107  and  _110
REMARK   48  A    between atoms: _110  and  _111
REMARK   49  A    between atoms: _116  and  _118
REMARK   50  A    between atoms: _118  and  _119
REMARK   51  A    between atoms: _118  and  _121
REMARK   52  A    between atoms: _121  and  _122
REMARK   53  A    between atoms: _127  and  _129
REMARK   54  A    between atoms: _129  and  _130
REMARK   55  A    between atoms: _129  and  _132
REMARK   56  A    between atoms: _132  and  _133
REMARK   57  A    between atoms: _138  and  _139
REMARK   58  A    between atoms: _141  and  _143
REMARK   59  A    between atoms: _143  and  _144
REMARK   60  A    between atoms: _143  and  _146
REMARK   61  A    between atoms: _146  and  _147
REMARK   62  A    between atoms: _147  and  _148
REMARK   63  A    between atoms: _148  and  _149
REMARK   64  A    between atoms: _158  and  _160
REMARK   65  A    between atoms: _160  and  _161
REMARK   66  A    between atoms: _160  and  _163
REMARK   67  A    between atoms: _163  and  _164
REMARK   68  A    between atoms: _164  and  _165
REMARK   69  A    between atoms: _168  and  _170
REMARK   70  A    between atoms: _170  and  _171
REMARK   71  A    between atoms: _170  and  _173
REMARK   72  A    between atoms: _173  and  _174
REMARK   73  A    between atoms: _177  and  _179
REMARK   74  A    between atoms: _179  and  _180
REMARK   75  A    between atoms: _179  and  _182
REMARK   76  A    between atoms: _182  and  _183
REMARK   77  A    between atoms: _185  and  _187
REMARK   78  A    between atoms: _187  and  _188
REMARK   79  A    between atoms: _187  and  _190
REMARK   80  A    between atoms: _190  and  _191
REMARK   81  A    between atoms: _196  and  _198
REMARK   82  A    between atoms: _198  and  _199
REMARK   83  A    between atoms: _198  and  _201
REMARK   84  A    between atoms: _201  and  _202
REMARK   85  A    between atoms: _205  and  _207
REMARK   86  A    between atoms: _207  and  _208
REMARK   87  A    between atoms: _207  and  _210
REMARK   88  A    between atoms: _210  and  _211
REMARK   89  A    between atoms: _211  and  _212
REMARK   90  A    between atoms: _214  and  _216
REMARK   91  A    between atoms: _216  and  _217
REMARK   92  A    between atoms: _216  and  _219
REMARK   93  A    between atoms: _219  and  _220
REMARK   94  A    between atoms: _220  and  _221
REMARK   95  A    between atoms: _221  and  _222
REMARK   96  A    between atoms: _222  and  _223
REMARK   97  A    between atoms: _227  and  _229
REMARK   98  A    between atoms: _229  and  _230
REMARK   99  A    between atoms: _229  and  _232
REMARK  100  A    between atoms: _232  and  _233
REMARK  101  A    between atoms: _233  and  _234
REMARK  102  A    between atoms: _234  and  _235
REMARK  103  A    between atoms: _244  and  _246
REMARK  104  A    between atoms: _246  and  _247
REMARK  105  A    between atoms: _246  and  _249
REMARK  106  A    between atoms: _249  and  _250
REMARK  107  A    between atoms: _253  and  _255
REMARK  108  A    between atoms: _255  and  _256
REMARK  109  A    between atoms: _255  and  _258
REMARK  110  A    between atoms: _258  and  _259
REMARK  111  A    between atoms: _264  and  _266
REMARK  112  A    between atoms: _266  and  _267
REMARK  113  A    between atoms: _266  and  _269
REMARK  114  A    between atoms: _269  and  _270
REMARK  115  A    between atoms: _270  and  _271
REMARK  116  A    between atoms: _271  and  _272
REMARK  117  A    between atoms: _272  and  _273
REMARK  118  A    between atoms: _277  and  _279
REMARK  119  A    between atoms: _279  and  _280
REMARK  120  A    between atoms: _279  and  _282
REMARK  121  A    between atoms: _282  and  _283
REMARK  122  A    between atoms: _288  and  _290
REMARK  123  A    between atoms: _290  and  _291
REMARK  124  A    between atoms: _290  and  _293
REMARK  125  A    between atoms: _293  and  _294
REMARK  126  A    between atoms: _294  and  _295
REMARK  127  A    between atoms: _295  and  _296
REMARK  128  A    between atoms: _305  and  _307
REMARK  129  A    between atoms: _307  and  _308
REMARK  130  A    between atoms: _307  and  _310
REMARK  131  A    between atoms: _310  and  _311
REMARK  132  A    between atoms: _316  and  _318
REMARK  133  A    between atoms: _318  and  _319
REMARK  134  A    between atoms: _318  and  _321
REMARK  135  A    between atoms: _321  and  _322
REMARK  136  A    between atoms: _322  and  _323
REMARK  137  A    between atoms: _323  and  _324
REMARK  138  A    between atoms: _324  and  _325
REMARK                            x       y       z     vdW  Elec       q    Type
REMARK                         _______ _______ _______ _____ _____    ______ ____
ROOT
ATOM      1  O   HOH     1      12.876  30.889   2.840  0.00  0.00    +0.000 OA
ENDROOT
TORSDOF 0
REMARK  Name = ../refined-set-2016/1h0a/1h0a_pocket.pdb
REMARK  138 active torsions:
REMARK  status: ('A' for Active; 'I' for Inactive)
REMARK    1  A    between atoms: _1  and  _5
REMARK    2  A    between atoms: _5  and  _6
REMARK    3  A    between atoms: _5  and  _8
REMARK    4  A    between atoms: _9  and  _10
REMARK    5  A    between atoms: _12  and  _14
REMARK    6  A    between atoms: _14  and  _15
REMARK    7  A    between atoms: _14  and  _17
REMARK    8  A    between atoms: _17  and  _18
REMARK    9  A    between atoms: _21  and  _23
REMARK   10  A    between atoms: _23  and  _24
REMARK   11  A    between atoms: _23  and  _26
REMARK   12  A    between atoms: _26  and  _27
REMARK   13  A    between atoms: _29  and  _31
REMARK   14  A    between atoms: _31  and  _32
REMARK   15  A    between atoms: _31  and  _34
REMARK   16  A    between atoms: _34  and  _35
REMARK   17  A    between atoms: _37  and  _39
REMARK   18  A    between atoms: _39  and  _40
REMARK   19  A    between atoms: _39  and  _42
REMARK   20  A    between atoms: _42  and  _43
REMARK   21  A    between atoms: _46  and  _48
REMARK   22  A    between atoms: _48  and  _49
REMARK   23  A    between atoms: _48  and  _51
REMARK   24  A    between atoms: _51  and  _52
REMARK   25  A    between atoms: _52  and  _53
REMARK   26  A    between atoms: _53  and  _54
REMARK   27  A    between atoms: _63  and  _65
REMARK   28  A    between atoms: _65  and  _66
REMARK   29  A    between atoms: _65  and  _68
REMARK   30  A    between atoms: _68  and  _69
REMARK   31  A    between atoms: _69  and  _70
REMARK   32  A    between atoms: _70  and  _71
REMARK   33  A    between atoms: _80  and  _82
REMARK   34  A    between atoms: _82  and  _83
REMARK   35  A    between atoms: _82  and  _85
REMARK   36  A    between atoms: _85  and  _86
REMARK   37  A    between atoms: _86  and  _87
REMARK   38  A    between atoms: _92  and  _94
REMARK   39  A    between atoms: _94  and  _95
REMARK   40  A    between atoms: _94  and  _97
REMARK   41  A    between atoms: _97  and  _98
REMARK   42  A    between atoms: _98  and  _99
REMARK   43  A    between atoms: _99  and  _100
REMARK   44  A    between atoms: _100  and  _101
REMARK   45  A    between atoms: _105  and  _107
REMARK   46  A    between atoms: _107  and  _108
REMARK   47  A    between atoms: _107  and  _110
REMARK   48  A    between atoms: _110  and  _111
REMARK   49  A    between atoms: _116  and  _118
REMARK   50  A    between atoms: _118  and  _119
REMARK   51  A    between atoms: _118  and  _121
REMARK   52  A    between atoms: _121  and  _122
REMARK   53  A    between atoms: _127  and  _129
REMARK   54  A    between atoms: _129  and  _130
REMARK   55  A    between atoms: _129  and  _132
REMARK   56  A    between atoms: _132  and  _133
REMARK   57  A    between atoms: _138  and  _139
REMARK   58  A    between atoms: _141  and  _143
REMARK   59  A    between atoms: _143  and  _144
REMARK   60  A    between atoms: _143  and  _146
REMARK   61  A    between atoms: _146  and  _147
REMARK   62  A    between atoms: _147  and  _148
REMARK   63  A    between atoms: _148  and  _149
REMARK   64  A    between atoms: _158  and  _160
REMARK   65  A    between atoms: _160  and  _161
REMARK   66  A    between atoms: _160  and  _163
REMARK   67  A    between atoms: _163  and  _164
REMARK   68  A    between atoms: _164  and  _165
REMARK   69  A    between atoms: _168  and  _170
REMARK   70  A    between atoms: _170  and  _171
REMARK   71  A    between atoms: _170  and  _173
REMARK   72  A    between atoms: _173  and  _174
REMARK   73  A    between atoms: _177  and  _179
REMARK   74  A    between atoms: _179  and  _180
REMARK   75  A    between atoms: _179  and  _182
REMARK   76  A    between atoms: _182  and  _183
REMARK   77  A    between atoms: _185  and  _187
REMARK   78  A    between atoms: _187  and  _188
REMARK   79  A    between atoms: _187  and  _190
REMARK   80  A    between atoms: _190  and  _191
REMARK   81  A    between atoms: _196  and  _198
REMARK   82  A    between atoms: _198  and  _199
REMARK   83  A    between atoms: _198  and  _201
REMARK   84  A    between atoms: _201  and  _202
REMARK   85  A    between atoms: _205  and  _207
REMARK   86  A    between atoms: _207  and  _208
REMARK   87  A    between atoms: _207  and  _210
REMARK   88  A    between atoms: _210  and  _211
REMARK   89  A    between atoms: _211  and  _212
REMARK   90  A    between atoms: _214  and  _216
REMARK   91  A    between atoms: _216  and  _217
REMARK   92  A    between atoms: _216  and  _219
REMARK   93  A    between atoms: _219  and  _220
REMARK   94  A    between atoms: _220  and  _221
REMARK   95  A    between atoms: _221  and  _222
REMARK   96  A    between atoms: _222  and  _223
REMARK   97  A    between atoms: _227  and  _229
REMARK   98  A    between atoms: _229  and  _230
REMARK   99  A    between atoms: _229  and  _232
REMARK  100  A    between atoms: _232  and  _233
REMARK  101  A    between atoms: _233  and  _234
REMARK  102  A    between atoms: _234  and  _235
REMARK  103  A    between atoms: _244  and  _246
REMARK  104  A    between atoms: _246  and  _247
REMARK  105  A    between atoms: _246  and  _249
REMARK  106  A    between atoms: _249  and  _250
REMARK  107  A    between atoms: _253  and  _255
REMARK  108  A    between atoms: _255  and  _256
REMARK  109  A    between atoms: _255  and  _258
REMARK  110  A    between atoms: _258  and  _259
REMARK  111  A    between atoms: _264  and  _266
REMARK  112  A    between atoms: _266  and  _267
REMARK  113  A    between atoms: _266  and  _269
REMARK  114  A    between atoms: _269  and  _270
REMARK  115  A    between atoms: _270  and  _271
REMARK  116  A    between atoms: _271  and  _272
REMARK  117  A    between atoms: _272  and  _273
REMARK  118  A    between atoms: _277  and  _279
REMARK  119  A    between atoms: _279  and  _280
REMARK  120  A    between atoms: _279  and  _282
REMARK  121  A    between atoms: _282  and  _283
REMARK  122  A    between atoms: _288  and  _290
REMARK  123  A    between atoms: _290  and  _291
REMARK  124  A    between atoms: _290  and  _293
REMARK  125  A    between atoms: _293  and  _294
REMARK  126  A    between atoms: _294  and  _295
REMARK  127  A    between atoms: _295  and  _296
REMARK  128  A    between atoms: _305  and  _307
REMARK  129  A    between atoms: _307  and  _308
REMARK  130  A    between atoms: _307  and  _310
REMARK  131  A    between atoms: _310  and  _311
REMARK  132  A    between atoms: _316  and  _318
REMARK  133  A    between atoms: _318  and  _319
REMARK  134  A    between atoms: _318  and  _321
REMARK  135  A    between atoms: _321  and  _322
REMARK  136  A    between atoms: _322  and  _323
REMARK  137  A    between atoms: _323  and  _324
REMARK  138  A    between atoms: _324  and  _325
REMARK                            x       y       z     vdW  Elec       q    Type
REMARK                         _______ _______ _______ _____ _____    ______ ____
ROOT
ATOM      1  O   HOH     1      20.512  43.369  11.107  0.00  0.00    +0.000 OA
ENDROOT
TORSDOF 0
REMARK  Name = ../refined-set-2016/1h0a/1h0a_pocket.pdb
REMARK  138 active torsions:
REMARK  status: ('A' for Active; 'I' for Inactive)
REMARK    1  A    between atoms: _1  and  _5
REMARK    2  A    between atoms: _5  and  _6
REMARK    3  A    between atoms: _5  and  _8
REMARK    4  A    between atoms: _9  and  _10
REMARK    5  A    between atoms: _12  and  _14
REMARK    6  A    between atoms: _14  and  _15
REMARK    7  A    between atoms: _14  and  _17
REMARK    8  A    between atoms: _17  and  _18
REMARK    9  A    between atoms: _21  and  _23
REMARK   10  A    between atoms: _23  and  _24
REMARK   11  A    between atoms: _23  and  _26
REMARK   12  A    between atoms: _26  and  _27
REMARK   13  A    between atoms: _29  and  _31
REMARK   14  A    between atoms: _31  and  _32
REMARK   15  A    between atoms: _31  and  _34
REMARK   16  A    between atoms: _34  and  _35
REMARK   17  A    between atoms: _37  and  _39
REMARK   18  A    between atoms: _39  and  _40
REMARK   19  A    between atoms: _39  and  _42
REMARK   20  A    between atoms: _42  and  _43
REMARK   21  A    between atoms: _46  and  _48
REMARK   22  A    between atoms: _48  and  _49
REMARK   23  A    between atoms: _48  and  _51
REMARK   24  A    between atoms: _51  and  _52
REMARK   25  A    between atoms: _52  and  _53
REMARK   26  A    between atoms: _53  and  _54
REMARK   27  A    between atoms: _63  and  _65
REMARK   28  A    between atoms: _65  and  _66
REMARK   29  A    between atoms: _65  and  _68
REMARK   30  A    between atoms: _68  and  _69
REMARK   31  A    between atoms: _69  and  _70
REMARK   32  A    between atoms: _70  and  _71
REMARK   33  A    between atoms: _80  and  _82
REMARK   34  A    between atoms: _82  and  _83
REMARK   35  A    between atoms: _82  and  _85
REMARK   36  A    between atoms: _85  and  _86
REMARK   37  A    between atoms: _86  and  _87
REMARK   38  A    between atoms: _92  and  _94
REMARK   39  A    between atoms: _94  and  _95
REMARK   40  A    between atoms: _94  and  _97
REMARK   41  A    between atoms: _97  and  _98
REMARK   42  A    between atoms: _98  and  _99
REMARK   43  A    between atoms: _99  and  _100
REMARK   44  A    between atoms: _100  and  _101
REMARK   45  A    between atoms: _105  and  _107
REMARK   46  A    between atoms: _107  and  _108
REMARK   47  A    between atoms: _107  and  _110
REMARK   48  A    between atoms: _110  and  _111
REMARK   49  A    between atoms: _116  and  _118
REMARK   50  A    between atoms: _118  and  _119
REMARK   51  A    between atoms: _118  and  _121
REMARK   52  A    between atoms: _121  and  _122
REMARK   53  A    between atoms: _127  and  _129
REMARK   54  A    between atoms: _129  and  _130
REMARK   55  A    between atoms: _129  and  _132
REMARK   56  A    between atoms: _132  and  _133
REMARK   57  A    between atoms: _138  and  _139
REMARK   58  A    between atoms: _141  and  _143
REMARK   59  A    between atoms: _143  and  _144
REMARK   60  A    between atoms: _143  and  _146
REMARK   61  A    between atoms: _146  and  _147
REMARK   62  A    between atoms: _147  and  _148
REMARK   63  A    between atoms: _148  and  _149
REMARK   64  A    between atoms: _158  and  _160
REMARK   65  A    between atoms: _160  and  _161
REMARK   66  A    between atoms: _160  and  _163
REMARK   67  A    between atoms: _163  and  _164
REMARK   68  A    between atoms: _164  and  _165
REMARK   69  A    between atoms: _168  and  _170
REMARK   70  A    between atoms: _170  and  _171
REMARK   71  A    between atoms: _170  and  _173
REMARK   72  A    between atoms: _173  and  _174
REMARK   73  A    between atoms: _177  and  _179
REMARK   74  A    between atoms: _179  and  _180
REMARK   75  A    between atoms: _179  and  _182
REMARK   76  A    between atoms: _182  and  _183
REMARK   77  A    between atoms: _185  and  _187
REMARK   78  A    between atoms: _187  and  _188
REMARK   79  A    between atoms: _187  and  _190
REMARK   80  A    between atoms: _190  and  _191
REMARK   81  A    between atoms: _196  and  _198
REMARK   82  A    between atoms: _198  and  _199
REMARK   83  A    between atoms: _198  and  _201
REMARK   84  A    between atoms: _201  and  _202
REMARK   85  A    between atoms: _205  and  _207
REMARK   86  A    between atoms: _207  and  _208
REMARK   87  A    between atoms: _207  and  _210
REMARK   88  A    between atoms: _210  and  _211
REMARK   89  A    between atoms: _211  and  _212
REMARK   90  A    between atoms: _214  and  _216
REMARK   91  A    between atoms: _216  and  _217
REMARK   92  A    between atoms: _216  and  _219
REMARK   93  A    between atoms: _219  and  _220
REMARK   94  A    between atoms: _220  and  _221
REMARK   95  A    between atoms: _221  and  _222
REMARK   96  A    between atoms: _222  and  _223
REMARK   97  A    between atoms: _227  and  _229
REMARK   98  A    between atoms: _229  and  _230
REMARK   99  A    between atoms: _229  and  _232
REMARK  100  A    between atoms: _232  and  _233
REMARK  101  A    between atoms: _233  and  _234
REMARK  102  A    between atoms: _234  and  _235
REMARK  103  A    between atoms: _244  and  _246
REMARK  104  A    between atoms: _246  and  _247
REMARK  105  A    between atoms: _246  and  _249
REMARK  106  A    between atoms: _249  and  _250
REMARK  107  A    between atoms: _253  and  _255
REMARK  108  A    between atoms: _255  and  _256
REMARK  109  A    between atoms: _255  and  _258
REMARK  110  A    between atoms: _258  and  _259
REMARK  111  A    between atoms: _264  and  _266
REMARK  112  A    between atoms: _266  and  _267
REMARK  113  A    between atoms: _266  and  _269
REMARK  114  A    between atoms: _269  and  _270
REMARK  115  A    between atoms: _270  and  _271
REMARK  116  A    between atoms: _271  and  _272
REMARK  117  A    between atoms: _272  and  _273
REMARK  118  A    between atoms: _277  and  _279
REMARK  119  A    between atoms: _279  and  _280
REMARK  120  A    between atoms: _279  and  _282
REMARK  121  A    between atoms: _282  and  _283
REMARK  122  A    between atoms: _288  and  _290
REMARK  123  A    between atoms: _290  and  _291
REMARK  124  A    between atoms: _290  and  _293
REMARK  125  A    between atoms: _293  and  _294
REMARK  126  A    between atoms: _294  and  _295
REMARK  127  A    between atoms: _295  and  _296
REMARK  128  A    between atoms: _305  and  _307
REMARK  129  A    between atoms: _307  and  _308
REMARK  130  A    between atoms: _307  and  _310
REMARK  131  A    between atoms: _310  and  _311
REMARK  132  A    between atoms: _316  and  _318
REMARK  133  A    between atoms: _318  and  _319
REMARK  134  A    between atoms: _318  and  _321
REMARK  135  A    between atoms: _321  and  _322
REMARK  136  A    between atoms: _322  and  _323
REMARK  137  A    between atoms: _323  and  _324
REMARK  138  A    between atoms: _324  and  _325
REMARK                            x       y       z     vdW  Elec       q    Type
REMARK                         _______ _______ _______ _____ _____    ______ ____
ROOT
ATOM      1  O   HOH     1      20.971  37.291  -1.463  0.00  0.00    +0.000 OA
ENDROOT
TORSDOF 0
REMARK  Name = ../refined-set-2016/1h0a/1h0a_pocket.pdb
REMARK  138 active torsions:
REMARK  status: ('A' for Active; 'I' for Inactive)
REMARK    1  A    between atoms: _1  and  _5
REMARK    2  A    between atoms: _5  and  _6
REMARK    3  A    between atoms: _5  and  _8
REMARK    4  A    between atoms: _9  and  _10
REMARK    5  A    between atoms: _12  and  _14
REMARK    6  A    between atoms: _14  and  _15
REMARK    7  A    between atoms: _14  and  _17
REMARK    8  A    between atoms: _17  and  _18
REMARK    9  A    between atoms: _21  and  _23
REMARK   10  A    between atoms: _23  and  _24
REMARK   11  A    between atoms: _23  and  _26
REMARK   12  A    between atoms: _26  and  _27
REMARK   13  A    between atoms: _29  and  _31
REMARK   14  A    between atoms: _31  and  _32
REMARK   15  A    between atoms: _31  and  _34
REMARK   16  A    between atoms: _34  and  _35
REMARK   17  A    between atoms: _37  and  _39
REMARK   18  A    between atoms: _39  and  _40
REMARK   19  A    between atoms: _39  and  _42
REMARK   20  A    between atoms: _42  and  _43
REMARK   21  A    between atoms: _46  and  _48
REMARK   22  A    between atoms: _48  and  _49
REMARK   23  A    between atoms: _48  and  _51
REMARK   24  A    between atoms: _51  and  _52
REMARK   25  A    between atoms: _52  and  _53
REMARK   26  A    between atoms: _53  and  _54
REMARK   27  A    between atoms: _63  and  _65
REMARK   28  A    between atoms: _65  and  _66
REMARK   29  A    between atoms: _65  and  _68
REMARK   30  A    between atoms: _68  and  _69
REMARK   31  A    between atoms: _69  and  _70
REMARK   32  A    between atoms: _70  and  _71
REMARK   33  A    between atoms: _80  and  _82
REMARK   34  A    between atoms: _82  and  _83
REMARK   35  A    between atoms: _82  and  _85
REMARK   36  A    between atoms: _85  and  _86
REMARK   37  A    between atoms: _86  and  _87
REMARK   38  A    between atoms: _92  and  _94
REMARK   39  A    between atoms: _94  and  _95
REMARK   40  A    between atoms: _94  and  _97
REMARK   41  A    between atoms: _97  and  _98
REMARK   42  A    between atoms: _98  and  _99
REMARK   43  A    between atoms: _99  and  _100
REMARK   44  A    between atoms: _100  and  _101
REMARK   45  A    between atoms: _105  and  _107
REMARK   46  A    between atoms: _107  and  _108
REMARK   47  A    between atoms: _107  and  _110
REMARK   48  A    between atoms: _110  and  _111
REMARK   49  A    between atoms: _116  and  _118
REMARK   50  A    between atoms: _118  and  _119
REMARK   51  A    between atoms: _118  and  _121
REMARK   52  A    between atoms: _121  and  _122
REMARK   53  A    between atoms: _127  and  _129
REMARK   54  A    between atoms: _129  and  _130
REMARK   55  A    between atoms: _129  and  _132
REMARK   56  A    between atoms: _132  and  _133
REMARK   57  A    between atoms: _138  and  _139
REMARK   58  A    between atoms: _141  and  _143
REMARK   59  A    between atoms: _143  and  _144
REMARK   60  A    between atoms: _143  and  _146
REMARK   61  A    between atoms: _146  and  _147
REMARK   62  A    between atoms: _147  and  _148
REMARK   63  A    between atoms: _148  and  _149
REMARK   64  A    between atoms: _158  and  _160
REMARK   65  A    between atoms: _160  and  _161
REMARK   66  A    between atoms: _160  and  _163
REMARK   67  A    between atoms: _163  and  _164
REMARK   68  A    between atoms: _164  and  _165
REMARK   69  A    between atoms: _168  and  _170
REMARK   70  A    between atoms: _170  and  _171
REMARK   71  A    between atoms: _170  and  _173
REMARK   72  A    between atoms: _173  and  _174
REMARK   73  A    between atoms: _177  and  _179
REMARK   74  A    between atoms: _179  and  _180
REMARK   75  A    between atoms: _179  and  _182
REMARK   76  A    between atoms: _182  and  _183
REMARK   77  A    between atoms: _185  and  _187
REMARK   78  A    between atoms: _187  and  _188
REMARK   79  A    between atoms: _187  and  _190
REMARK   80  A    between atoms: _190  and  _191
REMARK   81  A    between atoms: _196  and  _198
REMARK   82  A    between atoms: _198  and  _199
REMARK   83  A    between atoms: _198  and  _201
REMARK   84  A    between atoms: _201  and  _202
REMARK   85  A    between atoms: _205  and  _207
REMARK   86  A    between atoms: _207  and  _208
REMARK   87  A    between atoms: _207  and  _210
REMARK   88  A    between atoms: _210  and  _211
REMARK   89  A    between atoms: _211  and  _212
REMARK   90  A    between atoms: _214  and  _216
REMARK   91  A    between atoms: _216  and  _217
REMARK   92  A    between atoms: _216  and  _219
REMARK   93  A    between atoms: _219  and  _220
REMARK   94  A    between atoms: _220  and  _221
REMARK   95  A    between atoms: _221  and  _222
REMARK   96  A    between atoms: _222  and  _223
REMARK   97  A    between atoms: _227  and  _229
REMARK   98  A    between atoms: _229  and  _230
REMARK   99  A    between atoms: _229  and  _232
REMARK  100  A    between atoms: _232  and  _233
REMARK  101  A    between atoms: _233  and  _234
REMARK  102  A    between atoms: _234  and  _235
REMARK  103  A    between atoms: _244  and  _246
REMARK  104  A    between atoms: _246  and  _247
REMARK  105  A    between atoms: _246  and  _249
REMARK  106  A    between atoms: _249  and  _250
REMARK  107  A    between atoms: _253  and  _255
REMARK  108  A    between atoms: _255  and  _256
REMARK  109  A    between atoms: _255  and  _258
REMARK  110  A    between atoms: _258  and  _259
REMARK  111  A    between atoms: _264  and  _266
REMARK  112  A    between atoms: _266  and  _267
REMARK  113  A    between atoms: _266  and  _269
REMARK  114  A    between atoms: _269  and  _270
REMARK  115  A    between atoms: _270  and  _271
REMARK  116  A    between atoms: _271  and  _272
REMARK  117  A    between atoms: _272  and  _273
REMARK  118  A    between atoms: _277  and  _279
REMARK  119  A    between atoms: _279  and  _280
REMARK  120  A    between atoms: _279  and  _282
REMARK  121  A    between atoms: _282  and  _283
REMARK  122  A    between atoms: _288  and  _290
REMARK  123  A    between atoms: _290  and  _291
REMARK  124  A    between atoms: _290  and  _293
REMARK  125  A    between atoms: _293  and  _294
REMARK  126  A    between atoms: _294  and  _295
REMARK  127  A    between atoms: _295  and  _296
REMARK  128  A    between atoms: _305  and  _307
REMARK  129  A    between atoms: _307  and  _308
REMARK  130  A    between atoms: _307  and  _310
REMARK  131  A    between atoms: _310  and  _311
REMARK  132  A    between atoms: _316  and  _318
REMARK  133  A    between atoms: _318  and  _319
REMARK  134  A    between atoms: _318  and  _321
REMARK  135  A    between atoms: _321  and  _322
REMARK  136  A    between atoms: _322  and  _323
REMARK  137  A    between atoms: _323  and  _324
REMARK  138  A    between atoms: _324  and  _325
REMARK                            x       y       z     vdW  Elec       q    Type
REMARK                         _______ _______ _______ _____ _____    ______ ____
ROOT
ATOM      1  O   HOH     1      21.833  40.514  -0.710  0.00  0.00    +0.000 OA
ENDROOT
TORSDOF 0
REMARK  Name = ../refined-set-2016/1h0a/1h0a_pocket.pdb
REMARK  138 active torsions:
REMARK  status: ('A' for Active; 'I' for Inactive)
REMARK    1  A    between atoms: _1  and  _5
REMARK    2  A    between atoms: _5  and  _6
REMARK    3  A    between atoms: _5  and  _8
REMARK    4  A    between atoms: _9  and  _10
REMARK    5  A    between atoms: _12  and  _14
REMARK    6  A    between atoms: _14  and  _15
REMARK    7  A    between atoms: _14  and  _17
REMARK    8  A    between atoms: _17  and  _18
REMARK    9  A    between atoms: _21  and  _23
REMARK   10  A    between atoms: _23  and  _24
REMARK   11  A    between atoms: _23  and  _26
REMARK   12  A    between atoms: _26  and  _27
REMARK   13  A    between atoms: _29  and  _31
REMARK   14  A    between atoms: _31  and  _32
REMARK   15  A    between atoms: _31  and  _34
REMARK   16  A    between atoms: _34  and  _35
REMARK   17  A    between atoms: _37  and  _39
REMARK   18  A    between atoms: _39  and  _40
REMARK   19  A    between atoms: _39  and  _42
REMARK   20  A    between atoms: _42  and  _43
REMARK   21  A    between atoms: _46  and  _48
REMARK   22  A    between atoms: _48  and  _49
REMARK   23  A    between atoms: _48  and  _51
REMARK   24  A    between atoms: _51  and  _52
REMARK   25  A    between atoms: _52  and  _53
REMARK   26  A    between atoms: _53  and  _54
REMARK   27  A    between atoms: _63  and  _65
REMARK   28  A    between atoms: _65  and  _66
REMARK   29  A    between atoms: _65  and  _68
REMARK   30  A    between atoms: _68  and  _69
REMARK   31  A    between atoms: _69  and  _70
REMARK   32  A    between atoms: _70  and  _71
REMARK   33  A    between atoms: _80  and  _82
REMARK   34  A    between atoms: _82  and  _83
REMARK   35  A    between atoms: _82  and  _85
REMARK   36  A    between atoms: _85  and  _86
REMARK   37  A    between atoms: _86  and  _87
REMARK   38  A    between atoms: _92  and  _94
REMARK   39  A    between atoms: _94  and  _95
REMARK   40  A    between atoms: _94  and  _97
REMARK   41  A    between atoms: _97  and  _98
REMARK   42  A    between atoms: _98  and  _99
REMARK   43  A    between atoms: _99  and  _100
REMARK   44  A    between atoms: _100  and  _101
REMARK   45  A    between atoms: _105  and  _107
REMARK   46  A    between atoms: _107  and  _108
REMARK   47  A    between atoms: _107  and  _110
REMARK   48  A    between atoms: _110  and  _111
REMARK   49  A    between atoms: _116  and  _118
REMARK   50  A    between atoms: _118  and  _119
REMARK   51  A    between atoms: _118  and  _121
REMARK   52  A    between atoms: _121  and  _122
REMARK   53  A    between atoms: _127  and  _129
REMARK   54  A    between atoms: _129  and  _130
REMARK   55  A    between atoms: _129  and  _132
REMARK   56  A    between atoms: _132  and  _133
REMARK   57  A    between atoms: _138  and  _139
REMARK   58  A    between atoms: _141  and  _143
REMARK   59  A    between atoms: _143  and  _144
REMARK   60  A    between atoms: _143  and  _146
REMARK   61  A    between atoms: _146  and  _147
REMARK   62  A    between atoms: _147  and  _148
REMARK   63  A    between atoms: _148  and  _149
REMARK   64  A    between atoms: _158  and  _160
REMARK   65  A    between atoms: _160  and  _161
REMARK   66  A    between atoms: _160  and  _163
REMARK   67  A    between atoms: _163  and  _164
REMARK   68  A    between atoms: _164  and  _165
REMARK   69  A    between atoms: _168  and  _170
REMARK   70  A    between atoms: _170  and  _171
REMARK   71  A    between atoms: _170  and  _173
REMARK   72  A    between atoms: _173  and  _174
REMARK   73  A    between atoms: _177  and  _179
REMARK   74  A    between atoms: _179  and  _180
REMARK   75  A    between atoms: _179  and  _182
REMARK   76  A    between atoms: _182  and  _183
REMARK   77  A    between atoms: _185  and  _187
REMARK   78  A    between atoms: _187  and  _188
REMARK   79  A    between atoms: _187  and  _190
REMARK   80  A    between atoms: _190  and  _191
REMARK   81  A    between atoms: _196  and  _198
REMARK   82  A    between atoms: _198  and  _199
REMARK   83  A    between atoms: _198  and  _201
REMARK   84  A    between atoms: _201  and  _202
REMARK   85  A    between atoms: _205  and  _207
REMARK   86  A    between atoms: _207  and  _208
REMARK   87  A    between atoms: _207  and  _210
REMARK   88  A    between atoms: _210  and  _211
REMARK   89  A    between atoms: _211  and  _212
REMARK   90  A    between atoms: _214  and  _216
REMARK   91  A    between atoms: _216  and  _217
REMARK   92  A    between atoms: _216  and  _219
REMARK   93  A    between atoms: _219  and  _220
REMARK   94  A    between atoms: _220  and  _221
REMARK   95  A    between atoms: _221  and  _222
REMARK   96  A    between atoms: _222  and  _223
REMARK   97  A    between atoms: _227  and  _229
REMARK   98  A    between atoms: _229  and  _230
REMARK   99  A    between atoms: _229  and  _232
REMARK  100  A    between atoms: _232  and  _233
REMARK  101  A    between atoms: _233  and  _234
REMARK  102  A    between atoms: _234  and  _235
REMARK  103  A    between atoms: _244  and  _246
REMARK  104  A    between atoms: _246  and  _247
REMARK  105  A    between atoms: _246  and  _249
REMARK  106  A    between atoms: _249  and  _250
REMARK  107  A    between atoms: _253  and  _255
REMARK  108  A    between atoms: _255  and  _256
REMARK  109  A    between atoms: _255  and  _258
REMARK  110  A    between atoms: _258  and  _259
REMARK  111  A    between atoms: _264  and  _266
REMARK  112  A    between atoms: _266  and  _267
REMARK  113  A    between atoms: _266  and  _269
REMARK  114  A    between atoms: _269  and  _270
REMARK  115  A    between atoms: _270  and  _271
REMARK  116  A    between atoms: _271  and  _272
REMARK  117  A    between atoms: _272  and  _273
REMARK  118  A    between atoms: _277  and  _279
REMARK  119  A    between atoms: _279  and  _280
REMARK  120  A    between atoms: _279  and  _282
REMARK  121  A    between atoms: _282  and  _283
REMARK  122  A    between atoms: _288  and  _290
REMARK  123  A    between atoms: _290  and  _291
REMARK  124  A    between atoms: _290  and  _293
REMARK  125  A    between atoms: _293  and  _294
REMARK  126  A    between atoms: _294  and  _295
REMARK  127  A    between atoms: _295  and  _296
REMARK  128  A    between atoms: _305  and  _307
REMARK  129  A    between atoms: _307  and  _308
REMARK  130  A    between atoms: _307  and  _310
REMARK  131  A    between atoms: _310  and  _311
REMARK  132  A    between atoms: _316  and  _318
REMARK  133  A    between atoms: _318  and  _319
REMARK  134  A    between atoms: _318  and  _321
REMARK  135  A    between atoms: _321  and  _322
REMARK  136  A    between atoms: _322  and  _323
REMARK  137  A    between atoms: _323  and  _324
REMARK  138  A    between atoms: _324  and  _325
REMARK                            x       y       z     vdW  Elec       q    Type
REMARK                         _______ _______ _______ _____ _____    ______ ____
ROOT
ATOM      1  O   HOH     1      26.103  38.244   3.608  0.00  0.00    +0.000 OA
ENDROOT
TORSDOF 0
REMARK  Name = ../refined-set-2016/1h0a/1h0a_pocket.pdb
REMARK  138 active torsions:
REMARK  status: ('A' for Active; 'I' for Inactive)
REMARK    1  A    between atoms: _1  and  _5
REMARK    2  A    between atoms: _5  and  _6
REMARK    3  A    between atoms: _5  and  _8
REMARK    4  A    between atoms: _9  and  _10
REMARK    5  A    between atoms: _12  and  _14
REMARK    6  A    between atoms: _14  and  _15
REMARK    7  A    between atoms: _14  and  _17
REMARK    8  A    between atoms: _17  and  _18
REMARK    9  A    between atoms: _21  and  _23
REMARK   10  A    between atoms: _23  and  _24
REMARK   11  A    between atoms: _23  and  _26
REMARK   12  A    between atoms: _26  and  _27
REMARK   13  A    between atoms: _29  and  _31
REMARK   14  A    between atoms: _31  and  _32
REMARK   15  A    between atoms: _31  and  _34
REMARK   16  A    between atoms: _34  and  _35
REMARK   17  A    between atoms: _37  and  _39
REMARK   18  A    between atoms: _39  and  _40
REMARK   19  A    between atoms: _39  and  _42
REMARK   20  A    between atoms: _42  and  _43
REMARK   21  A    between atoms: _46  and  _48
REMARK   22  A    between atoms: _48  and  _49
REMARK   23  A    between atoms: _48  and  _51
REMARK   24  A    between atoms: _51  and  _52
REMARK   25  A    between atoms: _52  and  _53
REMARK   26  A    between atoms: _53  and  _54
REMARK   27  A    between atoms: _63  and  _65
REMARK   28  A    between atoms: _65  and  _66
REMARK   29  A    between atoms: _65  and  _68
REMARK   30  A    between atoms: _68  and  _69
REMARK   31  A    between atoms: _69  and  _70
REMARK   32  A    between atoms: _70  and  _71
REMARK   33  A    between atoms: _80  and  _82
REMARK   34  A    between atoms: _82  and  _83
REMARK   35  A    between atoms: _82  and  _85
REMARK   36  A    between atoms: _85  and  _86
REMARK   37  A    between atoms: _86  and  _87
REMARK   38  A    between atoms: _92  and  _94
REMARK   39  A    between atoms: _94  and  _95
REMARK   40  A    between atoms: _94  and  _97
REMARK   41  A    between atoms: _97  and  _98
REMARK   42  A    between atoms: _98  and  _99
REMARK   43  A    between atoms: _99  and  _100
REMARK   44  A    between atoms: _100  and  _101
REMARK   45  A    between atoms: _105  and  _107
REMARK   46  A    between atoms: _107  and  _108
REMARK   47  A    between atoms: _107  and  _110
REMARK   48  A    between atoms: _110  and  _111
REMARK   49  A    between atoms: _116  and  _118
REMARK   50  A    between atoms: _118  and  _119
REMARK   51  A    between atoms: _118  and  _121
REMARK   52  A    between atoms: _121  and  _122
REMARK   53  A    between atoms: _127  and  _129
REMARK   54  A    between atoms: _129  and  _130
REMARK   55  A    between atoms: _129  and  _132
REMARK   56  A    between atoms: _132  and  _133
REMARK   57  A    between atoms: _138  and  _139
REMARK   58  A    between atoms: _141  and  _143
REMARK   59  A    between atoms: _143  and  _144
REMARK   60  A    between atoms: _143  and  _146
REMARK   61  A    between atoms: _146  and  _147
REMARK   62  A    between atoms: _147  and  _148
REMARK   63  A    between atoms: _148  and  _149
REMARK   64  A    between atoms: _158  and  _160
REMARK   65  A    between atoms: _160  and  _161
REMARK   66  A    between atoms: _160  and  _163
REMARK   67  A    between atoms: _163  and  _164
REMARK   68  A    between atoms: _164  and  _165
REMARK   69  A    between atoms: _168  and  _170
REMARK   70  A    between atoms: _170  and  _171
REMARK   71  A    between atoms: _170  and  _173
REMARK   72  A    between atoms: _173  and  _174
REMARK   73  A    between atoms: _177  and  _179
REMARK   74  A    between atoms: _179  and  _180
REMARK   75  A    between atoms: _179  and  _182
REMARK   76  A    between atoms: _182  and  _183
REMARK   77  A    between atoms: _185  and  _187
REMARK   78  A    between atoms: _187  and  _188
REMARK   79  A    between atoms: _187  and  _190
REMARK   80  A    between atoms: _190  and  _191
REMARK   81  A    between atoms: _196  and  _198
REMARK   82  A    between atoms: _198  and  _199
REMARK   83  A    between atoms: _198  and  _201
REMARK   84  A    between atoms: _201  and  _202
REMARK   85  A    between atoms: _205  and  _207
REMARK   86  A    between atoms: _207  and  _208
REMARK   87  A    between atoms: _207  and  _210
REMARK   88  A    between atoms: _210  and  _211
REMARK   89  A    between atoms: _211  and  _212
REMARK   90  A    between atoms: _214  and  _216
REMARK   91  A    between atoms: _216  and  _217
REMARK   92  A    between atoms: _216  and  _219
REMARK   93  A    between atoms: _219  and  _220
REMARK   94  A    between atoms: _220  and  _221
REMARK   95  A    between atoms: _221  and  _222
REMARK   96  A    between atoms: _222  and  _223
REMARK   97  A    between atoms: _227  and  _229
REMARK   98  A    between atoms: _229  and  _230
REMARK   99  A    between atoms: _229  and  _232
REMARK  100  A    between atoms: _232  and  _233
REMARK  101  A    between atoms: _233  and  _234
REMARK  102  A    between atoms: _234  and  _235
REMARK  103  A    between atoms: _244  and  _246
REMARK  104  A    between atoms: _246  and  _247
REMARK  105  A    between atoms: _246  and  _249
REMARK  106  A    between atoms: _249  and  _250
REMARK  107  A    between atoms: _253  and  _255
REMARK  108  A    between atoms: _255  and  _256
REMARK  109  A    between atoms: _255  and  _258
REMARK  110  A    between atoms: _258  and  _259
REMARK  111  A    between atoms: _264  and  _266
REMARK  112  A    between atoms: _266  and  _267
REMARK  113  A    between atoms: _266  and  _269
REMARK  114  A    between atoms: _269  and  _270
REMARK  115  A    between atoms: _270  and  _271
REMARK  116  A    between atoms: _271  and  _272
REMARK  117  A    between atoms: _272  and  _273
REMARK  118  A    between atoms: _277  and  _279
REMARK  119  A    between atoms: _279  and  _280
REMARK  120  A    between atoms: _279  and  _282
REMARK  121  A    between atoms: _282  and  _283
REMARK  122  A    between atoms: _288  and  _290
REMARK  123  A    between atoms: _290  and  _291
REMARK  124  A    between atoms: _290  and  _293
REMARK  125  A    between atoms: _293  and  _294
REMARK  126  A    between atoms: _294  and  _295
REMARK  127  A    between atoms: _295  and  _296
REMARK  128  A    between atoms: _305  and  _307
REMARK  129  A    between atoms: _307  and  _308
REMARK  130  A    between atoms: _307  and  _310
REMARK  131  A    between atoms: _310  and  _311
REMARK  132  A    between atoms: _316  and  _318
REMARK  133  A    between atoms: _318  and  _319
REMARK  134  A    between atoms: _318  and  _321
REMARK  135  A    between atoms: _321  and  _322
REMARK  136  A    between atoms: _322  and  _323
REMARK  137  A    between atoms: _323  and  _324
REMARK  138  A    between atoms: _324  and  _325
REMARK                            x       y       z     vdW  Elec       q    Type
REMARK                         _______ _______ _______ _____ _____    ______ ____
ROOT
ATOM      1  O   HOH     1      20.384  39.221   1.505  0.00  0.00    +0.000 OA
ENDROOT
TORSDOF 0
REMARK  Name = ../refined-set-2016/1h0a/1h0a_pocket.pdb
REMARK  138 active torsions:
REMARK  status: ('A' for Active; 'I' for Inactive)
REMARK    1  A    between atoms: _1  and  _5
REMARK    2  A    between atoms: _5  and  _6
REMARK    3  A    between atoms: _5  and  _8
REMARK    4  A    between atoms: _9  and  _10
REMARK    5  A    between atoms: _12  and  _14
REMARK    6  A    between atoms: _14  and  _15
REMARK    7  A    between atoms: _14  and  _17
REMARK    8  A    between atoms: _17  and  _18
REMARK    9  A    between atoms: _21  and  _23
REMARK   10  A    between atoms: _23  and  _24
REMARK   11  A    between atoms: _23  and  _26
REMARK   12  A    between atoms: _26  and  _27
REMARK   13  A    between atoms: _29  and  _31
REMARK   14  A    between atoms: _31  and  _32
REMARK   15  A    between atoms: _31  and  _34
REMARK   16  A    between atoms: _34  and  _35
REMARK   17  A    between atoms: _37  and  _39
REMARK   18  A    between atoms: _39  and  _40
REMARK   19  A    between atoms: _39  and  _42
REMARK   20  A    between atoms: _42  and  _43
REMARK   21  A    between atoms: _46  and  _48
REMARK   22  A    between atoms: _48  and  _49
REMARK   23  A    between atoms: _48  and  _51
REMARK   24  A    between atoms: _51  and  _52
REMARK   25  A    between atoms: _52  and  _53
REMARK   26  A    between atoms: _53  and  _54
REMARK   27  A    between atoms: _63  and  _65
REMARK   28  A    between atoms: _65  and  _66
REMARK   29  A    between atoms: _65  and  _68
REMARK   30  A    between atoms: _68  and  _69
REMARK   31  A    between atoms: _69  and  _70
REMARK   32  A    between atoms: _70  and  _71
REMARK   33  A    between atoms: _80  and  _82
REMARK   34  A    between atoms: _82  and  _83
REMARK   35  A    between atoms: _82  and  _85
REMARK   36  A    between atoms: _85  and  _86
REMARK   37  A    between atoms: _86  and  _87
REMARK   38  A    between atoms: _92  and  _94
REMARK   39  A    between atoms: _94  and  _95
REMARK   40  A    between atoms: _94  and  _97
REMARK   41  A    between atoms: _97  and  _98
REMARK   42  A    between atoms: _98  and  _99
REMARK   43  A    between atoms: _99  and  _100
REMARK   44  A    between atoms: _100  and  _101
REMARK   45  A    between atoms: _105  and  _107
REMARK   46  A    between atoms: _107  and  _108
REMARK   47  A    between atoms: _107  and  _110
REMARK   48  A    between atoms: _110  and  _111
REMARK   49  A    between atoms: _116  and  _118
REMARK   50  A    between atoms: _118  and  _119
REMARK   51  A    between atoms: _118  and  _121
REMARK   52  A    between atoms: _121  and  _122
REMARK   53  A    between atoms: _127  and  _129
REMARK   54  A    between atoms: _129  and  _130
REMARK   55  A    between atoms: _129  and  _132
REMARK   56  A    between atoms: _132  and  _133
REMARK   57  A    between atoms: _138  and  _139
REMARK   58  A    between atoms: _141  and  _143
REMARK   59  A    between atoms: _143  and  _144
REMARK   60  A    between atoms: _143  and  _146
REMARK   61  A    between atoms: _146  and  _147
REMARK   62  A    between atoms: _147  and  _148
REMARK   63  A    between atoms: _148  and  _149
REMARK   64  A    between atoms: _158  and  _160
REMARK   65  A    between atoms: _160  and  _161
REMARK   66  A    between atoms: _160  and  _163
REMARK   67  A    between atoms: _163  and  _164
REMARK   68  A    between atoms: _164  and  _165
REMARK   69  A    between atoms: _168  and  _170
REMARK   70  A    between atoms: _170  and  _171
REMARK   71  A    between atoms: _170  and  _173
REMARK   72  A    between atoms: _173  and  _174
REMARK   73  A    between atoms: _177  and  _179
REMARK   74  A    between atoms: _179  and  _180
REMARK   75  A    between atoms: _179  and  _182
REMARK   76  A    between atoms: _182  and  _183
REMARK   77  A    between atoms: _185  and  _187
REMARK   78  A    between atoms: _187  and  _188
REMARK   79  A    between atoms: _187  and  _190
REMARK   80  A    between atoms: _190  and  _191
REMARK   81  A    between atoms: _196  and  _198
REMARK   82  A    between atoms: _198  and  _199
REMARK   83  A    between atoms: _198  and  _201
REMARK   84  A    between atoms: _201  and  _202
REMARK   85  A    between atoms: _205  and  _207
REMARK   86  A    between atoms: _207  and  _208
REMARK   87  A    between atoms: _207  and  _210
REMARK   88  A    between atoms: _210  and  _211
REMARK   89  A    between atoms: _211  and  _212
REMARK   90  A    between atoms: _214  and  _216
REMARK   91  A    between atoms: _216  and  _217
REMARK   92  A    between atoms: _216  and  _219
REMARK   93  A    between atoms: _219  and  _220
REMARK   94  A    between atoms: _220  and  _221
REMARK   95  A    between atoms: _221  and  _222
REMARK   96  A    between atoms: _222  and  _223
REMARK   97  A    between atoms: _227  and  _229
REMARK   98  A    between atoms: _229  and  _230
REMARK   99  A    between atoms: _229  and  _232
REMARK  100  A    between atoms: _232  and  _233
REMARK  101  A    between atoms: _233  and  _234
REMARK  102  A    between atoms: _234  and  _235
REMARK  103  A    between atoms: _244  and  _246
REMARK  104  A    between atoms: _246  and  _247
REMARK  105  A    between atoms: _246  and  _249
REMARK  106  A    between atoms: _249  and  _250
REMARK  107  A    between atoms: _253  and  _255
REMARK  108  A    between atoms: _255  and  _256
REMARK  109  A    between atoms: _255  and  _258
REMARK  110  A    between atoms: _258  and  _259
REMARK  111  A    between atoms: _264  and  _266
REMARK  112  A    between atoms: _266  and  _267
REMARK  113  A    between atoms: _266  and  _269
REMARK  114  A    between atoms: _269  and  _270
REMARK  115  A    between atoms: _270  and  _271
REMARK  116  A    between atoms: _271  and  _272
REMARK  117  A    between atoms: _272  and  _273
REMARK  118  A    between atoms: _277  and  _279
REMARK  119  A    between atoms: _279  and  _280
REMARK  120  A    between atoms: _279  and  _282
REMARK  121  A    between atoms: _282  and  _283
REMARK  122  A    between atoms: _288  and  _290
REMARK  123  A    between atoms: _290  and  _291
REMARK  124  A    between atoms: _290  and  _293
REMARK  125  A    between atoms: _293  and  _294
REMARK  126  A    between atoms: _294  and  _295
REMARK  127  A    between atoms: _295  and  _296
REMARK  128  A    between atoms: _305  and  _307
REMARK  129  A    between atoms: _307  and  _308
REMARK  130  A    between atoms: _307  and  _310
REMARK  131  A    between atoms: _310  and  _311
REMARK  132  A    between atoms: _316  and  _318
REMARK  133  A    between atoms: _318  and  _319
REMARK  134  A    between atoms: _318  and  _321
REMARK  135  A    between atoms: _321  and  _322
REMARK  136  A    between atoms: _322  and  _323
REMARK  137  A    between atoms: _323  and  _324
REMARK  138  A    between atoms: _324  and  _325
REMARK                            x       y       z     vdW  Elec       q    Type
REMARK                         _______ _______ _______ _____ _____    ______ ____
ROOT
ATOM      1  O   HOH     1      26.071  26.763  -0.979  0.00  0.00    +0.000 OA
ENDROOT
TORSDOF 0
REMARK  Name = ../refined-set-2016/1h0a/1h0a_pocket.pdb
REMARK  138 active torsions:
REMARK  status: ('A' for Active; 'I' for Inactive)
REMARK    1  A    between atoms: _1  and  _5
REMARK    2  A    between atoms: _5  and  _6
REMARK    3  A    between atoms: _5  and  _8
REMARK    4  A    between atoms: _9  and  _10
REMARK    5  A    between atoms: _12  and  _14
REMARK    6  A    between atoms: _14  and  _15
REMARK    7  A    between atoms: _14  and  _17
REMARK    8  A    between atoms: _17  and  _18
REMARK    9  A    between atoms: _21  and  _23
REMARK   10  A    between atoms: _23  and  _24
REMARK   11  A    between atoms: _23  and  _26
REMARK   12  A    between atoms: _26  and  _27
REMARK   13  A    between atoms: _29  and  _31
REMARK   14  A    between atoms: _31  and  _32
REMARK   15  A    between atoms: _31  and  _34
REMARK   16  A    between atoms: _34  and  _35
REMARK   17  A    between atoms: _37  and  _39
REMARK   18  A    between atoms: _39  and  _40
REMARK   19  A    between atoms: _39  and  _42
REMARK   20  A    between atoms: _42  and  _43
REMARK   21  A    between atoms: _46  and  _48
REMARK   22  A    between atoms: _48  and  _49
REMARK   23  A    between atoms: _48  and  _51
REMARK   24  A    between atoms: _51  and  _52
REMARK   25  A    between atoms: _52  and  _53
REMARK   26  A    between atoms: _53  and  _54
REMARK   27  A    between atoms: _63  and  _65
REMARK   28  A    between atoms: _65  and  _66
REMARK   29  A    between atoms: _65  and  _68
REMARK   30  A    between atoms: _68  and  _69
REMARK   31  A    between atoms: _69  and  _70
REMARK   32  A    between atoms: _70  and  _71
REMARK   33  A    between atoms: _80  and  _82
REMARK   34  A    between atoms: _82  and  _83
REMARK   35  A    between atoms: _82  and  _85
REMARK   36  A    between atoms: _85  and  _86
REMARK   37  A    between atoms: _86  and  _87
REMARK   38  A    between atoms: _92  and  _94
REMARK   39  A    between atoms: _94  and  _95
REMARK   40  A    between atoms: _94  and  _97
REMARK   41  A    between atoms: _97  and  _98
REMARK   42  A    between atoms: _98  and  _99
REMARK   43  A    between atoms: _99  and  _100
REMARK   44  A    between atoms: _100  and  _101
REMARK   45  A    between atoms: _105  and  _107
REMARK   46  A    between atoms: _107  and  _108
REMARK   47  A    between atoms: _107  and  _110
REMARK   48  A    between atoms: _110  and  _111
REMARK   49  A    between atoms: _116  and  _118
REMARK   50  A    between atoms: _118  and  _119
REMARK   51  A    between atoms: _118  and  _121
REMARK   52  A    between atoms: _121  and  _122
REMARK   53  A    between atoms: _127  and  _129
REMARK   54  A    between atoms: _129  and  _130
REMARK   55  A    between atoms: _129  and  _132
REMARK   56  A    between atoms: _132  and  _133
REMARK   57  A    between atoms: _138  and  _139
REMARK   58  A    between atoms: _141  and  _143
REMARK   59  A    between atoms: _143  and  _144
REMARK   60  A    between atoms: _143  and  _146
REMARK   61  A    between atoms: _146  and  _147
REMARK   62  A    between atoms: _147  and  _148
REMARK   63  A    between atoms: _148  and  _149
REMARK   64  A    between atoms: _158  and  _160
REMARK   65  A    between atoms: _160  and  _161
REMARK   66  A    between atoms: _160  and  _163
REMARK   67  A    between atoms: _163  and  _164
REMARK   68  A    between atoms: _164  and  _165
REMARK   69  A    between atoms: _168  and  _170
REMARK   70  A    between atoms: _170  and  _171
REMARK   71  A    between atoms: _170  and  _173
REMARK   72  A    between atoms: _173  and  _174
REMARK   73  A    between atoms: _177  and  _179
REMARK   74  A    between atoms: _179  and  _180
REMARK   75  A    between atoms: _179  and  _182
REMARK   76  A    between atoms: _182  and  _183
REMARK   77  A    between atoms: _185  and  _187
REMARK   78  A    between atoms: _187  and  _188
REMARK   79  A    between atoms: _187  and  _190
REMARK   80  A    between atoms: _190  and  _191
REMARK   81  A    between atoms: _196  and  _198
REMARK   82  A    between atoms: _198  and  _199
REMARK   83  A    between atoms: _198  and  _201
REMARK   84  A    between atoms: _201  and  _202
REMARK   85  A    between atoms: _205  and  _207
REMARK   86  A    between atoms: _207  and  _208
REMARK   87  A    between atoms: _207  and  _210
REMARK   88  A    between atoms: _210  and  _211
REMARK   89  A    between atoms: _211  and  _212
REMARK   90  A    between atoms: _214  and  _216
REMARK   91  A    between atoms: _216  and  _217
REMARK   92  A    between atoms: _216  and  _219
REMARK   93  A    between atoms: _219  and  _220
REMARK   94  A    between atoms: _220  and  _221
REMARK   95  A    between atoms: _221  and  _222
REMARK   96  A    between atoms: _222  and  _223
REMARK   97  A    between atoms: _227  and  _229
REMARK   98  A    between atoms: _229  and  _230
REMARK   99  A    between atoms: _229  and  _232
REMARK  100  A    between atoms: _232  and  _233
REMARK  101  A    between atoms: _233  and  _234
REMARK  102  A    between atoms: _234  and  _235
REMARK  103  A    between atoms: _244  and  _246
REMARK  104  A    between atoms: _246  and  _247
REMARK  105  A    between atoms: _246  and  _249
REMARK  106  A    between atoms: _249  and  _250
REMARK  107  A    between atoms: _253  and  _255
REMARK  108  A    between atoms: _255  and  _256
REMARK  109  A    between atoms: _255  and  _258
REMARK  110  A    between atoms: _258  and  _259
REMARK  111  A    between atoms: _264  and  _266
REMARK  112  A    between atoms: _266  and  _267
REMARK  113  A    between atoms: _266  and  _269
REMARK  114  A    between atoms: _269  and  _270
REMARK  115  A    between atoms: _270  and  _271
REMARK  116  A    between atoms: _271  and  _272
REMARK  117  A    between atoms: _272  and  _273
REMARK  118  A    between atoms: _277  and  _279
REMARK  119  A    between atoms: _279  and  _280
REMARK  120  A    between atoms: _279  and  _282
REMARK  121  A    between atoms: _282  and  _283
REMARK  122  A    between atoms: _288  and  _290
REMARK  123  A    between atoms: _290  and  _291
REMARK  124  A    between atoms: _290  and  _293
REMARK  125  A    between atoms: _293  and  _294
REMARK  126  A    between atoms: _294  and  _295
REMARK  127  A    between atoms: _295  and  _296
REMARK  128  A    between atoms: _305  and  _307
REMARK  129  A    between atoms: _307  and  _308
REMARK  130  A    between atoms: _307  and  _310
REMARK  131  A    between atoms: _310  and  _311
REMARK  132  A    between atoms: _316  and  _318
REMARK  133  A    between atoms: _318  and  _319
REMARK  134  A    between atoms: _318  and  _321
REMARK  135  A    between atoms: _321  and  _322
REMARK  136  A    between atoms: _322  and  _323
REMARK  137  A    between atoms: _323  and  _324
REMARK  138  A    between atoms: _324  and  _325
REMARK                            x       y       z     vdW  Elec       q    Type
REMARK                         _______ _______ _______ _____ _____    ______ ____
ROOT
ATOM      1  O   HOH     1      15.147  31.577   3.576  0.00  0.00    +0.000 OA
ENDROOT
TORSDOF 0
REMARK  Name = ../refined-set-2016/1h0a/1h0a_pocket.pdb
REMARK  138 active torsions:
REMARK  status: ('A' for Active; 'I' for Inactive)
REMARK    1  A    between atoms: _1  and  _5
REMARK    2  A    between atoms: _5  and  _6
REMARK    3  A    between atoms: _5  and  _8
REMARK    4  A    between atoms: _9  and  _10
REMARK    5  A    between atoms: _12  and  _14
REMARK    6  A    between atoms: _14  and  _15
REMARK    7  A    between atoms: _14  and  _17
REMARK    8  A    between atoms: _17  and  _18
REMARK    9  A    between atoms: _21  and  _23
REMARK   10  A    between atoms: _23  and  _24
REMARK   11  A    between atoms: _23  and  _26
REMARK   12  A    between atoms: _26  and  _27
REMARK   13  A    between atoms: _29  and  _31
REMARK   14  A    between atoms: _31  and  _32
REMARK   15  A    between atoms: _31  and  _34
REMARK   16  A    between atoms: _34  and  _35
REMARK   17  A    between atoms: _37  and  _39
REMARK   18  A    between atoms: _39  and  _40
REMARK   19  A    between atoms: _39  and  _42
REMARK   20  A    between atoms: _42  and  _43
REMARK   21  A    between atoms: _46  and  _48
REMARK   22  A    between atoms: _48  and  _49
REMARK   23  A    between atoms: _48  and  _51
REMARK   24  A    between atoms: _51  and  _52
REMARK   25  A    between atoms: _52  and  _53
REMARK   26  A    between atoms: _53  and  _54
REMARK   27  A    between atoms: _63  and  _65
REMARK   28  A    between atoms: _65  and  _66
REMARK   29  A    between atoms: _65  and  _68
REMARK   30  A    between atoms: _68  and  _69
REMARK   31  A    between atoms: _69  and  _70
REMARK   32  A    between atoms: _70  and  _71
REMARK   33  A    between atoms: _80  and  _82
REMARK   34  A    between atoms: _82  and  _83
REMARK   35  A    between atoms: _82  and  _85
REMARK   36  A    between atoms: _85  and  _86
REMARK   37  A    between atoms: _86  and  _87
REMARK   38  A    between atoms: _92  and  _94
REMARK   39  A    between atoms: _94  and  _95
REMARK   40  A    between atoms: _94  and  _97
REMARK   41  A    between atoms: _97  and  _98
REMARK   42  A    between atoms: _98  and  _99
REMARK   43  A    between atoms: _99  and  _100
REMARK   44  A    between atoms: _100  and  _101
REMARK   45  A    between atoms: _105  and  _107
REMARK   46  A    between atoms: _107  and  _108
REMARK   47  A    between atoms: _107  and  _110
REMARK   48  A    between atoms: _110  and  _111
REMARK   49  A    between atoms: _116  and  _118
REMARK   50  A    between atoms: _118  and  _119
REMARK   51  A    between atoms: _118  and  _121
REMARK   52  A    between atoms: _121  and  _122
REMARK   53  A    between atoms: _127  and  _129
REMARK   54  A    between atoms: _129  and  _130
REMARK   55  A    between atoms: _129  and  _132
REMARK   56  A    between atoms: _132  and  _133
REMARK   57  A    between atoms: _138  and  _139
REMARK   58  A    between atoms: _141  and  _143
REMARK   59  A    between atoms: _143  and  _144
REMARK   60  A    between atoms: _143  and  _146
REMARK   61  A    between atoms: _146  and  _147
REMARK   62  A    between atoms: _147  and  _148
REMARK   63  A    between atoms: _148  and  _149
REMARK   64  A    between atoms: _158  and  _160
REMARK   65  A    between atoms: _160  and  _161
REMARK   66  A    between atoms: _160  and  _163
REMARK   67  A    between atoms: _163  and  _164
REMARK   68  A    between atoms: _164  and  _165
REMARK   69  A    between atoms: _168  and  _170
REMARK   70  A    between atoms: _170  and  _171
REMARK   71  A    between atoms: _170  and  _173
REMARK   72  A    between atoms: _173  and  _174
REMARK   73  A    between atoms: _177  and  _179
REMARK   74  A    between atoms: _179  and  _180
REMARK   75  A    between atoms: _179  and  _182
REMARK   76  A    between atoms: _182  and  _183
REMARK   77  A    between atoms: _185  and  _187
REMARK   78  A    between atoms: _187  and  _188
REMARK   79  A    between atoms: _187  and  _190
REMARK   80  A    between atoms: _190  and  _191
REMARK   81  A    between atoms: _196  and  _198
REMARK   82  A    between atoms: _198  and  _199
REMARK   83  A    between atoms: _198  and  _201
REMARK   84  A    between atoms: _201  and  _202
REMARK   85  A    between atoms: _205  and  _207
REMARK   86  A    between atoms: _207  and  _208
REMARK   87  A    between atoms: _207  and  _210
REMARK   88  A    between atoms: _210  and  _211
REMARK   89  A    between atoms: _211  and  _212
REMARK   90  A    between atoms: _214  and  _216
REMARK   91  A    between atoms: _216  and  _217
REMARK   92  A    between atoms: _216  and  _219
REMARK   93  A    between atoms: _219  and  _220
REMARK   94  A    between atoms: _220  and  _221
REMARK   95  A    between atoms: _221  and  _222
REMARK   96  A    between atoms: _222  and  _223
REMARK   97  A    between atoms: _227  and  _229
REMARK   98  A    between atoms: _229  and  _230
REMARK   99  A    between atoms: _229  and  _232
REMARK  100  A    between atoms: _232  and  _233
REMARK  101  A    between atoms: _233  and  _234
REMARK  102  A    between atoms: _234  and  _235
REMARK  103  A    between atoms: _244  and  _246
REMARK  104  A    between atoms: _246  and  _247
REMARK  105  A    between atoms: _246  and  _249
REMARK  106  A    between atoms: _249  and  _250
REMARK  107  A    between atoms: _253  and  _255
REMARK  108  A    between atoms: _255  and  _256
REMARK  109  A    between atoms: _255  and  _258
REMARK  110  A    between atoms: _258  and  _259
REMARK  111  A    between atoms: _264  and  _266
REMARK  112  A    between atoms: _266  and  _267
REMARK  113  A    between atoms: _266  and  _269
REMARK  114  A    between atoms: _269  and  _270
REMARK  115  A    between atoms: _270  and  _271
REMARK  116  A    between atoms: _271  and  _272
REMARK  117  A    between atoms: _272  and  _273
REMARK  118  A    between atoms: _277  and  _279
REMARK  119  A    between atoms: _279  and  _280
REMARK  120  A    between atoms: _279  and  _282
REMARK  121  A    between atoms: _282  and  _283
REMARK  122  A    between atoms: _288  and  _290
REMARK  123  A    between atoms: _290  and  _291
REMARK  124  A    between atoms: _290  and  _293
REMARK  125  A    between atoms: _293  and  _294
REMARK  126  A    between atoms: _294  and  _295
REMARK  127  A    between atoms: _295  and  _296
REMARK  128  A    between atoms: _305  and  _307
REMARK  129  A    between atoms: _307  and  _308
REMARK  130  A    between atoms: _307  and  _310
REMARK  131  A    between atoms: _310  and  _311
REMARK  132  A    between atoms: _316  and  _318
REMARK  133  A    between atoms: _318  and  _319
REMARK  134  A    between atoms: _318  and  _321
REMARK  135  A    between atoms: _321  and  _322
REMARK  136  A    between atoms: _322  and  _323
REMARK  137  A    between atoms: _323  and  _324
REMARK  138  A    between atoms: _324  and  _325
REMARK                            x       y       z     vdW  Elec       q    Type
REMARK                         _______ _______ _______ _____ _____    ______ ____
ROOT
ATOM      1  O   HOH     1      28.531  25.738  -0.647  0.00  0.00    +0.000 OA
ENDROOT
TORSDOF 0
REMARK  Name = ../refined-set-2016/1h0a/1h0a_pocket.pdb
REMARK  138 active torsions:
REMARK  status: ('A' for Active; 'I' for Inactive)
REMARK    1  A    between atoms: _1  and  _5
REMARK    2  A    between atoms: _5  and  _6
REMARK    3  A    between atoms: _5  and  _8
REMARK    4  A    between atoms: _9  and  _10
REMARK    5  A    between atoms: _12  and  _14
REMARK    6  A    between atoms: _14  and  _15
REMARK    7  A    between atoms: _14  and  _17
REMARK    8  A    between atoms: _17  and  _18
REMARK    9  A    between atoms: _21  and  _23
REMARK   10  A    between atoms: _23  and  _24
REMARK   11  A    between atoms: _23  and  _26
REMARK   12  A    between atoms: _26  and  _27
REMARK   13  A    between atoms: _29  and  _31
REMARK   14  A    between atoms: _31  and  _32
REMARK   15  A    between atoms: _31  and  _34
REMARK   16  A    between atoms: _34  and  _35
REMARK   17  A    between atoms: _37  and  _39
REMARK   18  A    between atoms: _39  and  _40
REMARK   19  A    between atoms: _39  and  _42
REMARK   20  A    between atoms: _42  and  _43
REMARK   21  A    between atoms: _46  and  _48
REMARK   22  A    between atoms: _48  and  _49
REMARK   23  A    between atoms: _48  and  _51
REMARK   24  A    between atoms: _51  and  _52
REMARK   25  A    between atoms: _52  and  _53
REMARK   26  A    between atoms: _53  and  _54
REMARK   27  A    between atoms: _63  and  _65
REMARK   28  A    between atoms: _65  and  _66
REMARK   29  A    between atoms: _65  and  _68
REMARK   30  A    between atoms: _68  and  _69
REMARK   31  A    between atoms: _69  and  _70
REMARK   32  A    between atoms: _70  and  _71
REMARK   33  A    between atoms: _80  and  _82
REMARK   34  A    between atoms: _82  and  _83
REMARK   35  A    between atoms: _82  and  _85
REMARK   36  A    between atoms: _85  and  _86
REMARK   37  A    between atoms: _86  and  _87
REMARK   38  A    between atoms: _92  and  _94
REMARK   39  A    between atoms: _94  and  _95
REMARK   40  A    between atoms: _94  and  _97
REMARK   41  A    between atoms: _97  and  _98
REMARK   42  A    between atoms: _98  and  _99
REMARK   43  A    between atoms: _99  and  _100
REMARK   44  A    between atoms: _100  and  _101
REMARK   45  A    between atoms: _105  and  _107
REMARK   46  A    between atoms: _107  and  _108
REMARK   47  A    between atoms: _107  and  _110
REMARK   48  A    between atoms: _110  and  _111
REMARK   49  A    between atoms: _116  and  _118
REMARK   50  A    between atoms: _118  and  _119
REMARK   51  A    between atoms: _118  and  _121
REMARK   52  A    between atoms: _121  and  _122
REMARK   53  A    between atoms: _127  and  _129
REMARK   54  A    between atoms: _129  and  _130
REMARK   55  A    between atoms: _129  and  _132
REMARK   56  A    between atoms: _132  and  _133
REMARK   57  A    between atoms: _138  and  _139
REMARK   58  A    between atoms: _141  and  _143
REMARK   59  A    between atoms: _143  and  _144
REMARK   60  A    between atoms: _143  and  _146
REMARK   61  A    between atoms: _146  and  _147
REMARK   62  A    between atoms: _147  and  _148
REMARK   63  A    between atoms: _148  and  _149
REMARK   64  A    between atoms: _158  and  _160
REMARK   65  A    between atoms: _160  and  _161
REMARK   66  A    between atoms: _160  and  _163
REMARK   67  A    between atoms: _163  and  _164
REMARK   68  A    between atoms: _164  and  _165
REMARK   69  A    between atoms: _168  and  _170
REMARK   70  A    between atoms: _170  and  _171
REMARK   71  A    between atoms: _170  and  _173
REMARK   72  A    between atoms: _173  and  _174
REMARK   73  A    between atoms: _177  and  _179
REMARK   74  A    between atoms: _179  and  _180
REMARK   75  A    between atoms: _179  and  _182
REMARK   76  A    between atoms: _182  and  _183
REMARK   77  A    between atoms: _185  and  _187
REMARK   78  A    between atoms: _187  and  _188
REMARK   79  A    between atoms: _187  and  _190
REMARK   80  A    between atoms: _190  and  _191
REMARK   81  A    between atoms: _196  and  _198
REMARK   82  A    between atoms: _198  and  _199
REMARK   83  A    between atoms: _198  and  _201
REMARK   84  A    between atoms: _201  and  _202
REMARK   85  A    between atoms: _205  and  _207
REMARK   86  A    between atoms: _207  and  _208
REMARK   87  A    between atoms: _207  and  _210
REMARK   88  A    between atoms: _210  and  _211
REMARK   89  A    between atoms: _211  and  _212
REMARK   90  A    between atoms: _214  and  _216
REMARK   91  A    between atoms: _216  and  _217
REMARK   92  A    between atoms: _216  and  _219
REMARK   93  A    between atoms: _219  and  _220
REMARK   94  A    between atoms: _220  and  _221
REMARK   95  A    between atoms: _221  and  _222
REMARK   96  A    between atoms: _222  and  _223
REMARK   97  A    between atoms: _227  and  _229
REMARK   98  A    between atoms: _229  and  _230
REMARK   99  A    between atoms: _229  and  _232
REMARK  100  A    between atoms: _232  and  _233
REMARK  101  A    between atoms: _233  and  _234
REMARK  102  A    between atoms: _234  and  _235
REMARK  103  A    between atoms: _244  and  _246
REMARK  104  A    between atoms: _246  and  _247
REMARK  105  A    between atoms: _246  and  _249
REMARK  106  A    between atoms: _249  and  _250
REMARK  107  A    between atoms: _253  and  _255
REMARK  108  A    between atoms: _255  and  _256
REMARK  109  A    between atoms: _255  and  _258
REMARK  110  A    between atoms: _258  and  _259
REMARK  111  A    between atoms: _264  and  _266
REMARK  112  A    between atoms: _266  and  _267
REMARK  113  A    between atoms: _266  and  _269
REMARK  114  A    between atoms: _269  and  _270
REMARK  115  A    between atoms: _270  and  _271
REMARK  116  A    between atoms: _271  and  _272
REMARK  117  A    between atoms: _272  and  _273
REMARK  118  A    between atoms: _277  and  _279
REMARK  119  A    between atoms: _279  and  _280
REMARK  120  A    between atoms: _279  and  _282
REMARK  121  A    between atoms: _282  and  _283
REMARK  122  A    between atoms: _288  and  _290
REMARK  123  A    between atoms: _290  and  _291
REMARK  124  A    between atoms: _290  and  _293
REMARK  125  A    between atoms: _293  and  _294
REMARK  126  A    between atoms: _294  and  _295
REMARK  127  A    between atoms: _295  and  _296
REMARK  128  A    between atoms: _305  and  _307
REMARK  129  A    between atoms: _307  and  _308
REMARK  130  A    between atoms: _307  and  _310
REMARK  131  A    between atoms: _310  and  _311
REMARK  132  A    between atoms: _316  and  _318
REMARK  133  A    between atoms: _318  and  _319
REMARK  134  A    between atoms: _318  and  _321
REMARK  135  A    between atoms: _321  and  _322
REMARK  136  A    between atoms: _322  and  _323
REMARK  137  A    between atoms: _323  and  _324
REMARK  138  A    between atoms: _324  and  _325
REMARK                            x       y       z     vdW  Elec       q    Type
REMARK                         _______ _______ _______ _____ _____    ______ ____
ROOT
ATOM      1  O   HOH     1      17.489  39.789  11.161  0.00  0.00    +0.000 OA
ENDROOT
TORSDOF 0
REMARK  Name = ../refined-set-2016/1h0a/1h0a_pocket.pdb
REMARK  138 active torsions:
REMARK  status: ('A' for Active; 'I' for Inactive)
REMARK    1  A    between atoms: _1  and  _5
REMARK    2  A    between atoms: _5  and  _6
REMARK    3  A    between atoms: _5  and  _8
REMARK    4  A    between atoms: _9  and  _10
REMARK    5  A    between atoms: _12  and  _14
REMARK    6  A    between atoms: _14  and  _15
REMARK    7  A    between atoms: _14  and  _17
REMARK    8  A    between atoms: _17  and  _18
REMARK    9  A    between atoms: _21  and  _23
REMARK   10  A    between atoms: _23  and  _24
REMARK   11  A    between atoms: _23  and  _26
REMARK   12  A    between atoms: _26  and  _27
REMARK   13  A    between atoms: _29  and  _31
REMARK   14  A    between atoms: _31  and  _32
REMARK   15  A    between atoms: _31  and  _34
REMARK   16  A    between atoms: _34  and  _35
REMARK   17  A    between atoms: _37  and  _39
REMARK   18  A    between atoms: _39  and  _40
REMARK   19  A    between atoms: _39  and  _42
REMARK   20  A    between atoms: _42  and  _43
REMARK   21  A    between atoms: _46  and  _48
REMARK   22  A    between atoms: _48  and  _49
REMARK   23  A    between atoms: _48  and  _51
REMARK   24  A    between atoms: _51  and  _52
REMARK   25  A    between atoms: _52  and  _53
REMARK   26  A    between atoms: _53  and  _54
REMARK   27  A    between atoms: _63  and  _65
REMARK   28  A    between atoms: _65  and  _66
REMARK   29  A    between atoms: _65  and  _68
REMARK   30  A    between atoms: _68  and  _69
REMARK   31  A    between atoms: _69  and  _70
REMARK   32  A    between atoms: _70  and  _71
REMARK   33  A    between atoms: _80  and  _82
REMARK   34  A    between atoms: _82  and  _83
REMARK   35  A    between atoms: _82  and  _85
REMARK   36  A    between atoms: _85  and  _86
REMARK   37  A    between atoms: _86  and  _87
REMARK   38  A    between atoms: _92  and  _94
REMARK   39  A    between atoms: _94  and  _95
REMARK   40  A    between atoms: _94  and  _97
REMARK   41  A    between atoms: _97  and  _98
REMARK   42  A    between atoms: _98  and  _99
REMARK   43  A    between atoms: _99  and  _100
REMARK   44  A    between atoms: _100  and  _101
REMARK   45  A    between atoms: _105  and  _107
REMARK   46  A    between atoms: _107  and  _108
REMARK   47  A    between atoms: _107  and  _110
REMARK   48  A    between atoms: _110  and  _111
REMARK   49  A    between atoms: _116  and  _118
REMARK   50  A    between atoms: _118  and  _119
REMARK   51  A    between atoms: _118  and  _121
REMARK   52  A    between atoms: _121  and  _122
REMARK   53  A    between atoms: _127  and  _129
REMARK   54  A    between atoms: _129  and  _130
REMARK   55  A    between atoms: _129  and  _132
REMARK   56  A    between atoms: _132  and  _133
REMARK   57  A    between atoms: _138  and  _139
REMARK   58  A    between atoms: _141  and  _143
REMARK   59  A    between atoms: _143  and  _144
REMARK   60  A    between atoms: _143  and  _146
REMARK   61  A    between atoms: _146  and  _147
REMARK   62  A    between atoms: _147  and  _148
REMARK   63  A    between atoms: _148  and  _149
REMARK   64  A    between atoms: _158  and  _160
REMARK   65  A    between atoms: _160  and  _161
REMARK   66  A    between atoms: _160  and  _163
REMARK   67  A    between atoms: _163  and  _164
REMARK   68  A    between atoms: _164  and  _165
REMARK   69  A    between atoms: _168  and  _170
REMARK   70  A    between atoms: _170  and  _171
REMARK   71  A    between atoms: _170  and  _173
REMARK   72  A    between atoms: _173  and  _174
REMARK   73  A    between atoms: _177  and  _179
REMARK   74  A    between atoms: _179  and  _180
REMARK   75  A    between atoms: _179  and  _182
REMARK   76  A    between atoms: _182  and  _183
REMARK   77  A    between atoms: _185  and  _187
REMARK   78  A    between atoms: _187  and  _188
REMARK   79  A    between atoms: _187  and  _190
REMARK   80  A    between atoms: _190  and  _191
REMARK   81  A    between atoms: _196  and  _198
REMARK   82  A    between atoms: _198  and  _199
REMARK   83  A    between atoms: _198  and  _201
REMARK   84  A    between atoms: _201  and  _202
REMARK   85  A    between atoms: _205  and  _207
REMARK   86  A    between atoms: _207  and  _208
REMARK   87  A    between atoms: _207  and  _210
REMARK   88  A    between atoms: _210  and  _211
REMARK   89  A    between atoms: _211  and  _212
REMARK   90  A    between atoms: _214  and  _216
REMARK   91  A    between atoms: _216  and  _217
REMARK   92  A    between atoms: _216  and  _219
REMARK   93  A    between atoms: _219  and  _220
REMARK   94  A    between atoms: _220  and  _221
REMARK   95  A    between atoms: _221  and  _222
REMARK   96  A    between atoms: _222  and  _223
REMARK   97  A    between atoms: _227  and  _229
REMARK   98  A    between atoms: _229  and  _230
REMARK   99  A    between atoms: _229  and  _232
REMARK  100  A    between atoms: _232  and  _233
REMARK  101  A    between atoms: _233  and  _234
REMARK  102  A    between atoms: _234  and  _235
REMARK  103  A    between atoms: _244  and  _246
REMARK  104  A    between atoms: _246  and  _247
REMARK  105  A    between atoms: _246  and  _249
REMARK  106  A    between atoms: _249  and  _250
REMARK  107  A    between atoms: _253  and  _255
REMARK  108  A    between atoms: _255  and  _256
REMARK  109  A    between atoms: _255  and  _258
REMARK  110  A    between atoms: _258  and  _259
REMARK  111  A    between atoms: _264  and  _266
REMARK  112  A    between atoms: _266  and  _267
REMARK  113  A    between atoms: _266  and  _269
REMARK  114  A    between atoms: _269  and  _270
REMARK  115  A    between atoms: _270  and  _271
REMARK  116  A    between atoms: _271  and  _272
REMARK  117  A    between atoms: _272  and  _273
REMARK  118  A    between atoms: _277  and  _279
REMARK  119  A    between atoms: _279  and  _280
REMARK  120  A    between atoms: _279  and  _282
REMARK  121  A    between atoms: _282  and  _283
REMARK  122  A    between atoms: _288  and  _290
REMARK  123  A    between atoms: _290  and  _291
REMARK  124  A    between atoms: _290  and  _293
REMARK  125  A    between atoms: _293  and  _294
REMARK  126  A    between atoms: _294  and  _295
REMARK  127  A    between atoms: _295  and  _296
REMARK  128  A    between atoms: _305  and  _307
REMARK  129  A    between atoms: _307  and  _308
REMARK  130  A    between atoms: _307  and  _310
REMARK  131  A    between atoms: _310  and  _311
REMARK  132  A    between atoms: _316  and  _318
REMARK  133  A    between atoms: _318  and  _319
REMARK  134  A    between atoms: _318  and  _321
REMARK  135  A    between atoms: _321  and  _322
REMARK  136  A    between atoms: _322  and  _323
REMARK  137  A    between atoms: _323  and  _324
REMARK  138  A    between atoms: _324  and  _325
REMARK                            x       y       z     vdW  Elec       q    Type
REMARK                         _______ _______ _______ _____ _____    ______ ____
ROOT
ATOM      1  O   HOH     1      15.934  32.461   7.853  0.00  0.00    +0.000 OA
ENDROOT
TORSDOF 0
REMARK  Name = ../refined-set-2016/1h0a/1h0a_pocket.pdb
REMARK  138 active torsions:
REMARK  status: ('A' for Active; 'I' for Inactive)
REMARK    1  A    between atoms: _1  and  _5
REMARK    2  A    between atoms: _5  and  _6
REMARK    3  A    between atoms: _5  and  _8
REMARK    4  A    between atoms: _9  and  _10
REMARK    5  A    between atoms: _12  and  _14
REMARK    6  A    between atoms: _14  and  _15
REMARK    7  A    between atoms: _14  and  _17
REMARK    8  A    between atoms: _17  and  _18
REMARK    9  A    between atoms: _21  and  _23
REMARK   10  A    between atoms: _23  and  _24
REMARK   11  A    between atoms: _23  and  _26
REMARK   12  A    between atoms: _26  and  _27
REMARK   13  A    between atoms: _29  and  _31
REMARK   14  A    between atoms: _31  and  _32
REMARK   15  A    between atoms: _31  and  _34
REMARK   16  A    between atoms: _34  and  _35
REMARK   17  A    between atoms: _37  and  _39
REMARK   18  A    between atoms: _39  and  _40
REMARK   19  A    between atoms: _39  and  _42
REMARK   20  A    between atoms: _42  and  _43
REMARK   21  A    between atoms: _46  and  _48
REMARK   22  A    between atoms: _48  and  _49
REMARK   23  A    between atoms: _48  and  _51
REMARK   24  A    between atoms: _51  and  _52
REMARK   25  A    between atoms: _52  and  _53
REMARK   26  A    between atoms: _53  and  _54
REMARK   27  A    between atoms: _63  and  _65
REMARK   28  A    between atoms: _65  and  _66
REMARK   29  A    between atoms: _65  and  _68
REMARK   30  A    between atoms: _68  and  _69
REMARK   31  A    between atoms: _69  and  _70
REMARK   32  A    between atoms: _70  and  _71
REMARK   33  A    between atoms: _80  and  _82
REMARK   34  A    between atoms: _82  and  _83
REMARK   35  A    between atoms: _82  and  _85
REMARK   36  A    between atoms: _85  and  _86
REMARK   37  A    between atoms: _86  and  _87
REMARK   38  A    between atoms: _92  and  _94
REMARK   39  A    between atoms: _94  and  _95
REMARK   40  A    between atoms: _94  and  _97
REMARK   41  A    between atoms: _97  and  _98
REMARK   42  A    between atoms: _98  and  _99
REMARK   43  A    between atoms: _99  and  _100
REMARK   44  A    between atoms: _100  and  _101
REMARK   45  A    between atoms: _105  and  _107
REMARK   46  A    between atoms: _107  and  _108
REMARK   47  A    between atoms: _107  and  _110
REMARK   48  A    between atoms: _110  and  _111
REMARK   49  A    between atoms: _116  and  _118
REMARK   50  A    between atoms: _118  and  _119
REMARK   51  A    between atoms: _118  and  _121
REMARK   52  A    between atoms: _121  and  _122
REMARK   53  A    between atoms: _127  and  _129
REMARK   54  A    between atoms: _129  and  _130
REMARK   55  A    between atoms: _129  and  _132
REMARK   56  A    between atoms: _132  and  _133
REMARK   57  A    between atoms: _138  and  _139
REMARK   58  A    between atoms: _141  and  _143
REMARK   59  A    between atoms: _143  and  _144
REMARK   60  A    between atoms: _143  and  _146
REMARK   61  A    between atoms: _146  and  _147
REMARK   62  A    between atoms: _147  and  _148
REMARK   63  A    between atoms: _148  and  _149
REMARK   64  A    between atoms: _158  and  _160
REMARK   65  A    between atoms: _160  and  _161
REMARK   66  A    between atoms: _160  and  _163
REMARK   67  A    between atoms: _163  and  _164
REMARK   68  A    between atoms: _164  and  _165
REMARK   69  A    between atoms: _168  and  _170
REMARK   70  A    between atoms: _170  and  _171
REMARK   71  A    between atoms: _170  and  _173
REMARK   72  A    between atoms: _173  and  _174
REMARK   73  A    between atoms: _177  and  _179
REMARK   74  A    between atoms: _179  and  _180
REMARK   75  A    between atoms: _179  and  _182
REMARK   76  A    between atoms: _182  and  _183
REMARK   77  A    between atoms: _185  and  _187
REMARK   78  A    between atoms: _187  and  _188
REMARK   79  A    between atoms: _187  and  _190
REMARK   80  A    between atoms: _190  and  _191
REMARK   81  A    between atoms: _196  and  _198
REMARK   82  A    between atoms: _198  and  _199
REMARK   83  A    between atoms: _198  and  _201
REMARK   84  A    between atoms: _201  and  _202
REMARK   85  A    between atoms: _205  and  _207
REMARK   86  A    between atoms: _207  and  _208
REMARK   87  A    between atoms: _207  and  _210
REMARK   88  A    between atoms: _210  and  _211
REMARK   89  A    between atoms: _211  and  _212
REMARK   90  A    between atoms: _214  and  _216
REMARK   91  A    between atoms: _216  and  _217
REMARK   92  A    between atoms: _216  and  _219
REMARK   93  A    between atoms: _219  and  _220
REMARK   94  A    between atoms: _220  and  _221
REMARK   95  A    between atoms: _221  and  _222
REMARK   96  A    between atoms: _222  and  _223
REMARK   97  A    between atoms: _227  and  _229
REMARK   98  A    between atoms: _229  and  _230
REMARK   99  A    between atoms: _229  and  _232
REMARK  100  A    between atoms: _232  and  _233
REMARK  101  A    between atoms: _233  and  _234
REMARK  102  A    between atoms: _234  and  _235
REMARK  103  A    between atoms: _244  and  _246
REMARK  104  A    between atoms: _246  and  _247
REMARK  105  A    between atoms: _246  and  _249
REMARK  106  A    between atoms: _249  and  _250
REMARK  107  A    between atoms: _253  and  _255
REMARK  108  A    between atoms: _255  and  _256
REMARK  109  A    between atoms: _255  and  _258
REMARK  110  A    between atoms: _258  and  _259
REMARK  111  A    between atoms: _264  and  _266
REMARK  112  A    between atoms: _266  and  _267
REMARK  113  A    between atoms: _266  and  _269
REMARK  114  A    between atoms: _269  and  _270
REMARK  115  A    between atoms: _270  and  _271
REMARK  116  A    between atoms: _271  and  _272
REMARK  117  A    between atoms: _272  and  _273
REMARK  118  A    between atoms: _277  and  _279
REMARK  119  A    between atoms: _279  and  _280
REMARK  120  A    between atoms: _279  and  _282
REMARK  121  A    between atoms: _282  and  _283
REMARK  122  A    between atoms: _288  and  _290
REMARK  123  A    between atoms: _290  and  _291
REMARK  124  A    between atoms: _290  and  _293
REMARK  125  A    between atoms: _293  and  _294
REMARK  126  A    between atoms: _294  and  _295
REMARK  127  A    between atoms: _295  and  _296
REMARK  128  A    between atoms: _305  and  _307
REMARK  129  A    between atoms: _307  and  _308
REMARK  130  A    between atoms: _307  and  _310
REMARK  131  A    between atoms: _310  and  _311
REMARK  132  A    between atoms: _316  and  _318
REMARK  133  A    between atoms: _318  and  _319
REMARK  134  A    between atoms: _318  and  _321
REMARK  135  A    between atoms: _321  and  _322
REMARK  136  A    between atoms: _322  and  _323
REMARK  137  A    between atoms: _323  and  _324
REMARK  138  A    between atoms: _324  and  _325
REMARK                            x       y       z     vdW  Elec       q    Type
REMARK                         _______ _______ _______ _____ _____    ______ ____
ROOT
ATOM      1  O   HOH     1      19.062  41.614  12.099  0.00  0.00    +0.000 OA
ENDROOT
TORSDOF 0
REMARK  Name = ../refined-set-2016/1h0a/1h0a_pocket.pdb
REMARK  138 active torsions:
REMARK  status: ('A' for Active; 'I' for Inactive)
REMARK    1  A    between atoms: _1  and  _5
REMARK    2  A    between atoms: _5  and  _6
REMARK    3  A    between atoms: _5  and  _8
REMARK    4  A    between atoms: _9  and  _10
REMARK    5  A    between atoms: _12  and  _14
REMARK    6  A    between atoms: _14  and  _15
REMARK    7  A    between atoms: _14  and  _17
REMARK    8  A    between atoms: _17  and  _18
REMARK    9  A    between atoms: _21  and  _23
REMARK   10  A    between atoms: _23  and  _24
REMARK   11  A    between atoms: _23  and  _26
REMARK   12  A    between atoms: _26  and  _27
REMARK   13  A    between atoms: _29  and  _31
REMARK   14  A    between atoms: _31  and  _32
REMARK   15  A    between atoms: _31  and  _34
REMARK   16  A    between atoms: _34  and  _35
REMARK   17  A    between atoms: _37  and  _39
REMARK   18  A    between atoms: _39  and  _40
REMARK   19  A    between atoms: _39  and  _42
REMARK   20  A    between atoms: _42  and  _43
REMARK   21  A    between atoms: _46  and  _48
REMARK   22  A    between atoms: _48  and  _49
REMARK   23  A    between atoms: _48  and  _51
REMARK   24  A    between atoms: _51  and  _52
REMARK   25  A    between atoms: _52  and  _53
REMARK   26  A    between atoms: _53  and  _54
REMARK   27  A    between atoms: _63  and  _65
REMARK   28  A    between atoms: _65  and  _66
REMARK   29  A    between atoms: _65  and  _68
REMARK   30  A    between atoms: _68  and  _69
REMARK   31  A    between atoms: _69  and  _70
REMARK   32  A    between atoms: _70  and  _71
REMARK   33  A    between atoms: _80  and  _82
REMARK   34  A    between atoms: _82  and  _83
REMARK   35  A    between atoms: _82  and  _85
REMARK   36  A    between atoms: _85  and  _86
REMARK   37  A    between atoms: _86  and  _87
REMARK   38  A    between atoms: _92  and  _94
REMARK   39  A    between atoms: _94  and  _95
REMARK   40  A    between atoms: _94  and  _97
REMARK   41  A    between atoms: _97  and  _98
REMARK   42  A    between atoms: _98  and  _99
REMARK   43  A    between atoms: _99  and  _100
REMARK   44  A    between atoms: _100  and  _101
REMARK   45  A    between atoms: _105  and  _107
REMARK   46  A    between atoms: _107  and  _108
REMARK   47  A    between atoms: _107  and  _110
REMARK   48  A    between atoms: _110  and  _111
REMARK   49  A    between atoms: _116  and  _118
REMARK   50  A    between atoms: _118  and  _119
REMARK   51  A    between atoms: _118  and  _121
REMARK   52  A    between atoms: _121  and  _122
REMARK   53  A    between atoms: _127  and  _129
REMARK   54  A    between atoms: _129  and  _130
REMARK   55  A    between atoms: _129  and  _132
REMARK   56  A    between atoms: _132  and  _133
REMARK   57  A    between atoms: _138  and  _139
REMARK   58  A    between atoms: _141  and  _143
REMARK   59  A    between atoms: _143  and  _144
REMARK   60  A    between atoms: _143  and  _146
REMARK   61  A    between atoms: _146  and  _147
REMARK   62  A    between atoms: _147  and  _148
REMARK   63  A    between atoms: _148  and  _149
REMARK   64  A    between atoms: _158  and  _160
REMARK   65  A    between atoms: _160  and  _161
REMARK   66  A    between atoms: _160  and  _163
REMARK   67  A    between atoms: _163  and  _164
REMARK   68  A    between atoms: _164  and  _165
REMARK   69  A    between atoms: _168  and  _170
REMARK   70  A    between atoms: _170  and  _171
REMARK   71  A    between atoms: _170  and  _173
REMARK   72  A    between atoms: _173  and  _174
REMARK   73  A    between atoms: _177  and  _179
REMARK   74  A    between atoms: _179  and  _180
REMARK   75  A    between atoms: _179  and  _182
REMARK   76  A    between atoms: _182  and  _183
REMARK   77  A    between atoms: _185  and  _187
REMARK   78  A    between atoms: _187  and  _188
REMARK   79  A    between atoms: _187  and  _190
REMARK   80  A    between atoms: _190  and  _191
REMARK   81  A    between atoms: _196  and  _198
REMARK   82  A    between atoms: _198  and  _199
REMARK   83  A    between atoms: _198  and  _201
REMARK   84  A    between atoms: _201  and  _202
REMARK   85  A    between atoms: _205  and  _207
REMARK   86  A    between atoms: _207  and  _208
REMARK   87  A    between atoms: _207  and  _210
REMARK   88  A    between atoms: _210  and  _211
REMARK   89  A    between atoms: _211  and  _212
REMARK   90  A    between atoms: _214  and  _216
REMARK   91  A    between atoms: _216  and  _217
REMARK   92  A    between atoms: _216  and  _219
REMARK   93  A    between atoms: _219  and  _220
REMARK   94  A    between atoms: _220  and  _221
REMARK   95  A    between atoms: _221  and  _222
REMARK   96  A    between atoms: _222  and  _223
REMARK   97  A    between atoms: _227  and  _229
REMARK   98  A    between atoms: _229  and  _230
REMARK   99  A    between atoms: _229  and  _232
REMARK  100  A    between atoms: _232  and  _233
REMARK  101  A    between atoms: _233  and  _234
REMARK  102  A    between atoms: _234  and  _235
REMARK  103  A    between atoms: _244  and  _246
REMARK  104  A    between atoms: _246  and  _247
REMARK  105  A    between atoms: _246  and  _249
REMARK  106  A    between atoms: _249  and  _250
REMARK  107  A    between atoms: _253  and  _255
REMARK  108  A    between atoms: _255  and  _256
REMARK  109  A    between atoms: _255  and  _258
REMARK  110  A    between atoms: _258  and  _259
REMARK  111  A    between atoms: _264  and  _266
REMARK  112  A    between atoms: _266  and  _267
REMARK  113  A    between atoms: _266  and  _269
REMARK  114  A    between atoms: _269  and  _270
REMARK  115  A    between atoms: _270  and  _271
REMARK  116  A    between atoms: _271  and  _272
REMARK  117  A    between atoms: _272  and  _273
REMARK  118  A    between atoms: _277  and  _279
REMARK  119  A    between atoms: _279  and  _280
REMARK  120  A    between atoms: _279  and  _282
REMARK  121  A    between atoms: _282  and  _283
REMARK  122  A    between atoms: _288  and  _290
REMARK  123  A    between atoms: _290  and  _291
REMARK  124  A    between atoms: _290  and  _293
REMARK  125  A    between atoms: _293  and  _294
REMARK  126  A    between atoms: _294  and  _295
REMARK  127  A    between atoms: _295  and  _296
REMARK  128  A    between atoms: _305  and  _307
REMARK  129  A    between atoms: _307  and  _308
REMARK  130  A    between atoms: _307  and  _310
REMARK  131  A    between atoms: _310  and  _311
REMARK  132  A    between atoms: _316  and  _318
REMARK  133  A    between atoms: _318  and  _319
REMARK  134  A    between atoms: _318  and  _321
REMARK  135  A    between atoms: _321  and  _322
REMARK  136  A    between atoms: _322  and  _323
REMARK  137  A    between atoms: _323  and  _324
REMARK  138  A    between atoms: _324  and  _325
REMARK                            x       y       z     vdW  Elec       q    Type
REMARK                         _______ _______ _______ _____ _____    ______ ____
ROOT
ATOM      1  O   HOH     1      24.265  36.589  16.072  0.00  0.00    +0.000 OA
ENDROOT
TORSDOF 0
REMARK  Name = ../refined-set-2016/1h0a/1h0a_pocket.pdb
REMARK  138 active torsions:
REMARK  status: ('A' for Active; 'I' for Inactive)
REMARK    1  A    between atoms: _1  and  _5
REMARK    2  A    between atoms: _5  and  _6
REMARK    3  A    between atoms: _5  and  _8
REMARK    4  A    between atoms: _9  and  _10
REMARK    5  A    between atoms: _12  and  _14
REMARK    6  A    between atoms: _14  and  _15
REMARK    7  A    between atoms: _14  and  _17
REMARK    8  A    between atoms: _17  and  _18
REMARK    9  A    between atoms: _21  and  _23
REMARK   10  A    between atoms: _23  and  _24
REMARK   11  A    between atoms: _23  and  _26
REMARK   12  A    between atoms: _26  and  _27
REMARK   13  A    between atoms: _29  and  _31
REMARK   14  A    between atoms: _31  and  _32
REMARK   15  A    between atoms: _31  and  _34
REMARK   16  A    between atoms: _34  and  _35
REMARK   17  A    between atoms: _37  and  _39
REMARK   18  A    between atoms: _39  and  _40
REMARK   19  A    between atoms: _39  and  _42
REMARK   20  A    between atoms: _42  and  _43
REMARK   21  A    between atoms: _46  and  _48
REMARK   22  A    between atoms: _48  and  _49
REMARK   23  A    between atoms: _48  and  _51
REMARK   24  A    between atoms: _51  and  _52
REMARK   25  A    between atoms: _52  and  _53
REMARK   26  A    between atoms: _53  and  _54
REMARK   27  A    between atoms: _63  and  _65
REMARK   28  A    between atoms: _65  and  _66
REMARK   29  A    between atoms: _65  and  _68
REMARK   30  A    between atoms: _68  and  _69
REMARK   31  A    between atoms: _69  and  _70
REMARK   32  A    between atoms: _70  and  _71
REMARK   33  A    between atoms: _80  and  _82
REMARK   34  A    between atoms: _82  and  _83
REMARK   35  A    between atoms: _82  and  _85
REMARK   36  A    between atoms: _85  and  _86
REMARK   37  A    between atoms: _86  and  _87
REMARK   38  A    between atoms: _92  and  _94
REMARK   39  A    between atoms: _94  and  _95
REMARK   40  A    between atoms: _94  and  _97
REMARK   41  A    between atoms: _97  and  _98
REMARK   42  A    between atoms: _98  and  _99
REMARK   43  A    between atoms: _99  and  _100
REMARK   44  A    between atoms: _100  and  _101
REMARK   45  A    between atoms: _105  and  _107
REMARK   46  A    between atoms: _107  and  _108
REMARK   47  A    between atoms: _107  and  _110
REMARK   48  A    between atoms: _110  and  _111
REMARK   49  A    between atoms: _116  and  _118
REMARK   50  A    between atoms: _118  and  _119
REMARK   51  A    between atoms: _118  and  _121
REMARK   52  A    between atoms: _121  and  _122
REMARK   53  A    between atoms: _127  and  _129
REMARK   54  A    between atoms: _129  and  _130
REMARK   55  A    between atoms: _129  and  _132
REMARK   56  A    between atoms: _132  and  _133
REMARK   57  A    between atoms: _138  and  _139
REMARK   58  A    between atoms: _141  and  _143
REMARK   59  A    between atoms: _143  and  _144
REMARK   60  A    between atoms: _143  and  _146
REMARK   61  A    between atoms: _146  and  _147
REMARK   62  A    between atoms: _147  and  _148
REMARK   63  A    between atoms: _148  and  _149
REMARK   64  A    between atoms: _158  and  _160
REMARK   65  A    between atoms: _160  and  _161
REMARK   66  A    between atoms: _160  and  _163
REMARK   67  A    between atoms: _163  and  _164
REMARK   68  A    between atoms: _164  and  _165
REMARK   69  A    between atoms: _168  and  _170
REMARK   70  A    between atoms: _170  and  _171
REMARK   71  A    between atoms: _170  and  _173
REMARK   72  A    between atoms: _173  and  _174
REMARK   73  A    between atoms: _177  and  _179
REMARK   74  A    between atoms: _179  and  _180
REMARK   75  A    between atoms: _179  and  _182
REMARK   76  A    between atoms: _182  and  _183
REMARK   77  A    between atoms: _185  and  _187
REMARK   78  A    between atoms: _187  and  _188
REMARK   79  A    between atoms: _187  and  _190
REMARK   80  A    between atoms: _190  and  _191
REMARK   81  A    between atoms: _196  and  _198
REMARK   82  A    between atoms: _198  and  _199
REMARK   83  A    between atoms: _198  and  _201
REMARK   84  A    between atoms: _201  and  _202
REMARK   85  A    between atoms: _205  and  _207
REMARK   86  A    between atoms: _207  and  _208
REMARK   87  A    between atoms: _207  and  _210
REMARK   88  A    between atoms: _210  and  _211
REMARK   89  A    between atoms: _211  and  _212
REMARK   90  A    between atoms: _214  and  _216
REMARK   91  A    between atoms: _216  and  _217
REMARK   92  A    between atoms: _216  and  _219
REMARK   93  A    between atoms: _219  and  _220
REMARK   94  A    between atoms: _220  and  _221
REMARK   95  A    between atoms: _221  and  _222
REMARK   96  A    between atoms: _222  and  _223
REMARK   97  A    between atoms: _227  and  _229
REMARK   98  A    between atoms: _229  and  _230
REMARK   99  A    between atoms: _229  and  _232
REMARK  100  A    between atoms: _232  and  _233
REMARK  101  A    between atoms: _233  and  _234
REMARK  102  A    between atoms: _234  and  _235
REMARK  103  A    between atoms: _244  and  _246
REMARK  104  A    between atoms: _246  and  _247
REMARK  105  A    between atoms: _246  and  _249
REMARK  106  A    between atoms: _249  and  _250
REMARK  107  A    between atoms: _253  and  _255
REMARK  108  A    between atoms: _255  and  _256
REMARK  109  A    between atoms: _255  and  _258
REMARK  110  A    between atoms: _258  and  _259
REMARK  111  A    between atoms: _264  and  _266
REMARK  112  A    between atoms: _266  and  _267
REMARK  113  A    between atoms: _266  and  _269
REMARK  114  A    between atoms: _269  and  _270
REMARK  115  A    between atoms: _270  and  _271
REMARK  116  A    between atoms: _271  and  _272
REMARK  117  A    between atoms: _272  and  _273
REMARK  118  A    between atoms: _277  and  _279
REMARK  119  A    between atoms: _279  and  _280
REMARK  120  A    between atoms: _279  and  _282
REMARK  121  A    between atoms: _282  and  _283
REMARK  122  A    between atoms: _288  and  _290
REMARK  123  A    between atoms: _290  and  _291
REMARK  124  A    between atoms: _290  and  _293
REMARK  125  A    between atoms: _293  and  _294
REMARK  126  A    between atoms: _294  and  _295
REMARK  127  A    between atoms: _295  and  _296
REMARK  128  A    between atoms: _305  and  _307
REMARK  129  A    between atoms: _307  and  _308
REMARK  130  A    between atoms: _307  and  _310
REMARK  131  A    between atoms: _310  and  _311
REMARK  132  A    between atoms: _316  and  _318
REMARK  133  A    between atoms: _318  and  _319
REMARK  134  A    between atoms: _318  and  _321
REMARK  135  A    between atoms: _321  and  _322
REMARK  136  A    between atoms: _322  and  _323
REMARK  137  A    between atoms: _323  and  _324
REMARK  138  A    between atoms: _324  and  _325
REMARK                            x       y       z     vdW  Elec       q    Type
REMARK                         _______ _______ _______ _____ _____    ______ ____
ROOT
ATOM      1  O   HOH     1      24.679  38.561  13.949  0.00  0.00    +0.000 OA
ENDROOT
TORSDOF 0
REMARK  Name = ../refined-set-2016/1h0a/1h0a_pocket.pdb
REMARK  138 active torsions:
REMARK  status: ('A' for Active; 'I' for Inactive)
REMARK    1  A    between atoms: _1  and  _5
REMARK    2  A    between atoms: _5  and  _6
REMARK    3  A    between atoms: _5  and  _8
REMARK    4  A    between atoms: _9  and  _10
REMARK    5  A    between atoms: _12  and  _14
REMARK    6  A    between atoms: _14  and  _15
REMARK    7  A    between atoms: _14  and  _17
REMARK    8  A    between atoms: _17  and  _18
REMARK    9  A    between atoms: _21  and  _23
REMARK   10  A    between atoms: _23  and  _24
REMARK   11  A    between atoms: _23  and  _26
REMARK   12  A    between atoms: _26  and  _27
REMARK   13  A    between atoms: _29  and  _31
REMARK   14  A    between atoms: _31  and  _32
REMARK   15  A    between atoms: _31  and  _34
REMARK   16  A    between atoms: _34  and  _35
REMARK   17  A    between atoms: _37  and  _39
REMARK   18  A    between atoms: _39  and  _40
REMARK   19  A    between atoms: _39  and  _42
REMARK   20  A    between atoms: _42  and  _43
REMARK   21  A    between atoms: _46  and  _48
REMARK   22  A    between atoms: _48  and  _49
REMARK   23  A    between atoms: _48  and  _51
REMARK   24  A    between atoms: _51  and  _52
REMARK   25  A    between atoms: _52  and  _53
REMARK   26  A    between atoms: _53  and  _54
REMARK   27  A    between atoms: _63  and  _65
REMARK   28  A    between atoms: _65  and  _66
REMARK   29  A    between atoms: _65  and  _68
REMARK   30  A    between atoms: _68  and  _69
REMARK   31  A    between atoms: _69  and  _70
REMARK   32  A    between atoms: _70  and  _71
REMARK   33  A    between atoms: _80  and  _82
REMARK   34  A    between atoms: _82  and  _83
REMARK   35  A    between atoms: _82  and  _85
REMARK   36  A    between atoms: _85  and  _86
REMARK   37  A    between atoms: _86  and  _87
REMARK   38  A    between atoms: _92  and  _94
REMARK   39  A    between atoms: _94  and  _95
REMARK   40  A    between atoms: _94  and  _97
REMARK   41  A    between atoms: _97  and  _98
REMARK   42  A    between atoms: _98  and  _99
REMARK   43  A    between atoms: _99  and  _100
REMARK   44  A    between atoms: _100  and  _101
REMARK   45  A    between atoms: _105  and  _107
REMARK   46  A    between atoms: _107  and  _108
REMARK   47  A    between atoms: _107  and  _110
REMARK   48  A    between atoms: _110  and  _111
REMARK   49  A    between atoms: _116  and  _118
REMARK   50  A    between atoms: _118  and  _119
REMARK   51  A    between atoms: _118  and  _121
REMARK   52  A    between atoms: _121  and  _122
REMARK   53  A    between atoms: _127  and  _129
REMARK   54  A    between atoms: _129  and  _130
REMARK   55  A    between atoms: _129  and  _132
REMARK   56  A    between atoms: _132  and  _133
REMARK   57  A    between atoms: _138  and  _139
REMARK   58  A    between atoms: _141  and  _143
REMARK   59  A    between atoms: _143  and  _144
REMARK   60  A    between atoms: _143  and  _146
REMARK   61  A    between atoms: _146  and  _147
REMARK   62  A    between atoms: _147  and  _148
REMARK   63  A    between atoms: _148  and  _149
REMARK   64  A    between atoms: _158  and  _160
REMARK   65  A    between atoms: _160  and  _161
REMARK   66  A    between atoms: _160  and  _163
REMARK   67  A    between atoms: _163  and  _164
REMARK   68  A    between atoms: _164  and  _165
REMARK   69  A    between atoms: _168  and  _170
REMARK   70  A    between atoms: _170  and  _171
REMARK   71  A    between atoms: _170  and  _173
REMARK   72  A    between atoms: _173  and  _174
REMARK   73  A    between atoms: _177  and  _179
REMARK   74  A    between atoms: _179  and  _180
REMARK   75  A    between atoms: _179  and  _182
REMARK   76  A    between atoms: _182  and  _183
REMARK   77  A    between atoms: _185  and  _187
REMARK   78  A    between atoms: _187  and  _188
REMARK   79  A    between atoms: _187  and  _190
REMARK   80  A    between atoms: _190  and  _191
REMARK   81  A    between atoms: _196  and  _198
REMARK   82  A    between atoms: _198  and  _199
REMARK   83  A    between atoms: _198  and  _201
REMARK   84  A    between atoms: _201  and  _202
REMARK   85  A    between atoms: _205  and  _207
REMARK   86  A    between atoms: _207  and  _208
REMARK   87  A    between atoms: _207  and  _210
REMARK   88  A    between atoms: _210  and  _211
REMARK   89  A    between atoms: _211  and  _212
REMARK   90  A    between atoms: _214  and  _216
REMARK   91  A    between atoms: _216  and  _217
REMARK   92  A    between atoms: _216  and  _219
REMARK   93  A    between atoms: _219  and  _220
REMARK   94  A    between atoms: _220  and  _221
REMARK   95  A    between atoms: _221  and  _222
REMARK   96  A    between atoms: _222  and  _223
REMARK   97  A    between atoms: _227  and  _229
REMARK   98  A    between atoms: _229  and  _230
REMARK   99  A    between atoms: _229  and  _232
REMARK  100  A    between atoms: _232  and  _233
REMARK  101  A    between atoms: _233  and  _234
REMARK  102  A    between atoms: _234  and  _235
REMARK  103  A    between atoms: _244  and  _246
REMARK  104  A    between atoms: _246  and  _247
REMARK  105  A    between atoms: _246  and  _249
REMARK  106  A    between atoms: _249  and  _250
REMARK  107  A    between atoms: _253  and  _255
REMARK  108  A    between atoms: _255  and  _256
REMARK  109  A    between atoms: _255  and  _258
REMARK  110  A    between atoms: _258  and  _259
REMARK  111  A    between atoms: _264  and  _266
REMARK  112  A    between atoms: _266  and  _267
REMARK  113  A    between atoms: _266  and  _269
REMARK  114  A    between atoms: _269  and  _270
REMARK  115  A    between atoms: _270  and  _271
REMARK  116  A    between atoms: _271  and  _272
REMARK  117  A    between atoms: _272  and  _273
REMARK  118  A    between atoms: _277  and  _279
REMARK  119  A    between atoms: _279  and  _280
REMARK  120  A    between atoms: _279  and  _282
REMARK  121  A    between atoms: _282  and  _283
REMARK  122  A    between atoms: _288  and  _290
REMARK  123  A    between atoms: _290  and  _291
REMARK  124  A    between atoms: _290  and  _293
REMARK  125  A    between atoms: _293  and  _294
REMARK  126  A    between atoms: _294  and  _295
REMARK  127  A    between atoms: _295  and  _296
REMARK  128  A    between atoms: _305  and  _307
REMARK  129  A    between atoms: _307  and  _308
REMARK  130  A    between atoms: _307  and  _310
REMARK  131  A    between atoms: _310  and  _311
REMARK  132  A    between atoms: _316  and  _318
REMARK  133  A    between atoms: _318  and  _319
REMARK  134  A    between atoms: _318  and  _321
REMARK  135  A    between atoms: _321  and  _322
REMARK  136  A    between atoms: _322  and  _323
REMARK  137  A    between atoms: _323  and  _324
REMARK  138  A    between atoms: _324  and  _325
REMARK                            x       y       z     vdW  Elec       q    Type
REMARK                         _______ _______ _______ _____ _____    ______ ____
ROOT
ATOM      1  O   HOH     1      28.343  29.326   9.292  0.00  0.00    +0.000 OA
ENDROOT
TORSDOF 0
REMARK  Name = ../refined-set-2016/1h0a/1h0a_pocket.pdb
REMARK  138 active torsions:
REMARK  status: ('A' for Active; 'I' for Inactive)
REMARK    1  A    between atoms: _1  and  _5
REMARK    2  A    between atoms: _5  and  _6
REMARK    3  A    between atoms: _5  and  _8
REMARK    4  A    between atoms: _9  and  _10
REMARK    5  A    between atoms: _12  and  _14
REMARK    6  A    between atoms: _14  and  _15
REMARK    7  A    between atoms: _14  and  _17
REMARK    8  A    between atoms: _17  and  _18
REMARK    9  A    between atoms: _21  and  _23
REMARK   10  A    between atoms: _23  and  _24
REMARK   11  A    between atoms: _23  and  _26
REMARK   12  A    between atoms: _26  and  _27
REMARK   13  A    between atoms: _29  and  _31
REMARK   14  A    between atoms: _31  and  _32
REMARK   15  A    between atoms: _31  and  _34
REMARK   16  A    between atoms: _34  and  _35
REMARK   17  A    between atoms: _37  and  _39
REMARK   18  A    between atoms: _39  and  _40
REMARK   19  A    between atoms: _39  and  _42
REMARK   20  A    between atoms: _42  and  _43
REMARK   21  A    between atoms: _46  and  _48
REMARK   22  A    between atoms: _48  and  _49
REMARK   23  A    between atoms: _48  and  _51
REMARK   24  A    between atoms: _51  and  _52
REMARK   25  A    between atoms: _52  and  _53
REMARK   26  A    between atoms: _53  and  _54
REMARK   27  A    between atoms: _63  and  _65
REMARK   28  A    between atoms: _65  and  _66
REMARK   29  A    between atoms: _65  and  _68
REMARK   30  A    between atoms: _68  and  _69
REMARK   31  A    between atoms: _69  and  _70
REMARK   32  A    between atoms: _70  and  _71
REMARK   33  A    between atoms: _80  and  _82
REMARK   34  A    between atoms: _82  and  _83
REMARK   35  A    between atoms: _82  and  _85
REMARK   36  A    between atoms: _85  and  _86
REMARK   37  A    between atoms: _86  and  _87
REMARK   38  A    between atoms: _92  and  _94
REMARK   39  A    between atoms: _94  and  _95
REMARK   40  A    between atoms: _94  and  _97
REMARK   41  A    between atoms: _97  and  _98
REMARK   42  A    between atoms: _98  and  _99
REMARK   43  A    between atoms: _99  and  _100
REMARK   44  A    between atoms: _100  and  _101
REMARK   45  A    between atoms: _105  and  _107
REMARK   46  A    between atoms: _107  and  _108
REMARK   47  A    between atoms: _107  and  _110
REMARK   48  A    between atoms: _110  and  _111
REMARK   49  A    between atoms: _116  and  _118
REMARK   50  A    between atoms: _118  and  _119
REMARK   51  A    between atoms: _118  and  _121
REMARK   52  A    between atoms: _121  and  _122
REMARK   53  A    between atoms: _127  and  _129
REMARK   54  A    between atoms: _129  and  _130
REMARK   55  A    between atoms: _129  and  _132
REMARK   56  A    between atoms: _132  and  _133
REMARK   57  A    between atoms: _138  and  _139
REMARK   58  A    between atoms: _141  and  _143
REMARK   59  A    between atoms: _143  and  _144
REMARK   60  A    between atoms: _143  and  _146
REMARK   61  A    between atoms: _146  and  _147
REMARK   62  A    between atoms: _147  and  _148
REMARK   63  A    between atoms: _148  and  _149
REMARK   64  A    between atoms: _158  and  _160
REMARK   65  A    between atoms: _160  and  _161
REMARK   66  A    between atoms: _160  and  _163
REMARK   67  A    between atoms: _163  and  _164
REMARK   68  A    between atoms: _164  and  _165
REMARK   69  A    between atoms: _168  and  _170
REMARK   70  A    between atoms: _170  and  _171
REMARK   71  A    between atoms: _170  and  _173
REMARK   72  A    between atoms: _173  and  _174
REMARK   73  A    between atoms: _177  and  _179
REMARK   74  A    between atoms: _179  and  _180
REMARK   75  A    between atoms: _179  and  _182
REMARK   76  A    between atoms: _182  and  _183
REMARK   77  A    between atoms: _185  and  _187
REMARK   78  A    between atoms: _187  and  _188
REMARK   79  A    between atoms: _187  and  _190
REMARK   80  A    between atoms: _190  and  _191
REMARK   81  A    between atoms: _196  and  _198
REMARK   82  A    between atoms: _198  and  _199
REMARK   83  A    between atoms: _198  and  _201
REMARK   84  A    between atoms: _201  and  _202
REMARK   85  A    between atoms: _205  and  _207
REMARK   86  A    between atoms: _207  and  _208
REMARK   87  A    between atoms: _207  and  _210
REMARK   88  A    between atoms: _210  and  _211
REMARK   89  A    between atoms: _211  and  _212
REMARK   90  A    between atoms: _214  and  _216
REMARK   91  A    between atoms: _216  and  _217
REMARK   92  A    between atoms: _216  and  _219
REMARK   93  A    between atoms: _219  and  _220
REMARK   94  A    between atoms: _220  and  _221
REMARK   95  A    between atoms: _221  and  _222
REMARK   96  A    between atoms: _222  and  _223
REMARK   97  A    between atoms: _227  and  _229
REMARK   98  A    between atoms: _229  and  _230
REMARK   99  A    between atoms: _229  and  _232
REMARK  100  A    between atoms: _232  and  _233
REMARK  101  A    between atoms: _233  and  _234
REMARK  102  A    between atoms: _234  and  _235
REMARK  103  A    between atoms: _244  and  _246
REMARK  104  A    between atoms: _246  and  _247
REMARK  105  A    between atoms: _246  and  _249
REMARK  106  A    between atoms: _249  and  _250
REMARK  107  A    between atoms: _253  and  _255
REMARK  108  A    between atoms: _255  and  _256
REMARK  109  A    between atoms: _255  and  _258
REMARK  110  A    between atoms: _258  and  _259
REMARK  111  A    between atoms: _264  and  _266
REMARK  112  A    between atoms: _266  and  _267
REMARK  113  A    between atoms: _266  and  _269
REMARK  114  A    between atoms: _269  and  _270
REMARK  115  A    between atoms: _270  and  _271
REMARK  116  A    between atoms: _271  and  _272
REMARK  117  A    between atoms: _272  and  _273
REMARK  118  A    between atoms: _277  and  _279
REMARK  119  A    between atoms: _279  and  _280
REMARK  120  A    between atoms: _279  and  _282
REMARK  121  A    between atoms: _282  and  _283
REMARK  122  A    between atoms: _288  and  _290
REMARK  123  A    between atoms: _290  and  _291
REMARK  124  A    between atoms: _290  and  _293
REMARK  125  A    between atoms: _293  and  _294
REMARK  126  A    between atoms: _294  and  _295
REMARK  127  A    between atoms: _295  and  _296
REMARK  128  A    between atoms: _305  and  _307
REMARK  129  A    between atoms: _307  and  _308
REMARK  130  A    between atoms: _307  and  _310
REMARK  131  A    between atoms: _310  and  _311
REMARK  132  A    between atoms: _316  and  _318
REMARK  133  A    between atoms: _318  and  _319
REMARK  134  A    between atoms: _318  and  _321
REMARK  135  A    between atoms: _321  and  _322
REMARK  136  A    between atoms: _322  and  _323
REMARK  137  A    between atoms: _323  and  _324
REMARK  138  A    between atoms: _324  and  _325
REMARK                            x       y       z     vdW  Elec       q    Type
REMARK                         _______ _______ _______ _____ _____    ______ ____
ROOT
ATOM      1  O   HOH     1      30.714  33.869   8.757  0.00  0.00    +0.000 OA
ENDROOT
TORSDOF 0
REMARK  Name = ../refined-set-2016/1h0a/1h0a_pocket.pdb
REMARK  138 active torsions:
REMARK  status: ('A' for Active; 'I' for Inactive)
REMARK    1  A    between atoms: _1  and  _5
REMARK    2  A    between atoms: _5  and  _6
REMARK    3  A    between atoms: _5  and  _8
REMARK    4  A    between atoms: _9  and  _10
REMARK    5  A    between atoms: _12  and  _14
REMARK    6  A    between atoms: _14  and  _15
REMARK    7  A    between atoms: _14  and  _17
REMARK    8  A    between atoms: _17  and  _18
REMARK    9  A    between atoms: _21  and  _23
REMARK   10  A    between atoms: _23  and  _24
REMARK   11  A    between atoms: _23  and  _26
REMARK   12  A    between atoms: _26  and  _27
REMARK   13  A    between atoms: _29  and  _31
REMARK   14  A    between atoms: _31  and  _32
REMARK   15  A    between atoms: _31  and  _34
REMARK   16  A    between atoms: _34  and  _35
REMARK   17  A    between atoms: _37  and  _39
REMARK   18  A    between atoms: _39  and  _40
REMARK   19  A    between atoms: _39  and  _42
REMARK   20  A    between atoms: _42  and  _43
REMARK   21  A    between atoms: _46  and  _48
REMARK   22  A    between atoms: _48  and  _49
REMARK   23  A    between atoms: _48  and  _51
REMARK   24  A    between atoms: _51  and  _52
REMARK   25  A    between atoms: _52  and  _53
REMARK   26  A    between atoms: _53  and  _54
REMARK   27  A    between atoms: _63  and  _65
REMARK   28  A    between atoms: _65  and  _66
REMARK   29  A    between atoms: _65  and  _68
REMARK   30  A    between atoms: _68  and  _69
REMARK   31  A    between atoms: _69  and  _70
REMARK   32  A    between atoms: _70  and  _71
REMARK   33  A    between atoms: _80  and  _82
REMARK   34  A    between atoms: _82  and  _83
REMARK   35  A    between atoms: _82  and  _85
REMARK   36  A    between atoms: _85  and  _86
REMARK   37  A    between atoms: _86  and  _87
REMARK   38  A    between atoms: _92  and  _94
REMARK   39  A    between atoms: _94  and  _95
REMARK   40  A    between atoms: _94  and  _97
REMARK   41  A    between atoms: _97  and  _98
REMARK   42  A    between atoms: _98  and  _99
REMARK   43  A    between atoms: _99  and  _100
REMARK   44  A    between atoms: _100  and  _101
REMARK   45  A    between atoms: _105  and  _107
REMARK   46  A    between atoms: _107  and  _108
REMARK   47  A    between atoms: _107  and  _110
REMARK   48  A    between atoms: _110  and  _111
REMARK   49  A    between atoms: _116  and  _118
REMARK   50  A    between atoms: _118  and  _119
REMARK   51  A    between atoms: _118  and  _121
REMARK   52  A    between atoms: _121  and  _122
REMARK   53  A    between atoms: _127  and  _129
REMARK   54  A    between atoms: _129  and  _130
REMARK   55  A    between atoms: _129  and  _132
REMARK   56  A    between atoms: _132  and  _133
REMARK   57  A    between atoms: _138  and  _139
REMARK   58  A    between atoms: _141  and  _143
REMARK   59  A    between atoms: _143  and  _144
REMARK   60  A    between atoms: _143  and  _146
REMARK   61  A    between atoms: _146  and  _147
REMARK   62  A    between atoms: _147  and  _148
REMARK   63  A    between atoms: _148  and  _149
REMARK   64  A    between atoms: _158  and  _160
REMARK   65  A    between atoms: _160  and  _161
REMARK   66  A    between atoms: _160  and  _163
REMARK   67  A    between atoms: _163  and  _164
REMARK   68  A    between atoms: _164  and  _165
REMARK   69  A    between atoms: _168  and  _170
REMARK   70  A    between atoms: _170  and  _171
REMARK   71  A    between atoms: _170  and  _173
REMARK   72  A    between atoms: _173  and  _174
REMARK   73  A    between atoms: _177  and  _179
REMARK   74  A    between atoms: _179  and  _180
REMARK   75  A    between atoms: _179  and  _182
REMARK   76  A    between atoms: _182  and  _183
REMARK   77  A    between atoms: _185  and  _187
REMARK   78  A    between atoms: _187  and  _188
REMARK   79  A    between atoms: _187  and  _190
REMARK   80  A    between atoms: _190  and  _191
REMARK   81  A    between atoms: _196  and  _198
REMARK   82  A    between atoms: _198  and  _199
REMARK   83  A    between atoms: _198  and  _201
REMARK   84  A    between atoms: _201  and  _202
REMARK   85  A    between atoms: _205  and  _207
REMARK   86  A    between atoms: _207  and  _208
REMARK   87  A    between atoms: _207  and  _210
REMARK   88  A    between atoms: _210  and  _211
REMARK   89  A    between atoms: _211  and  _212
REMARK   90  A    between atoms: _214  and  _216
REMARK   91  A    between atoms: _216  and  _217
REMARK   92  A    between atoms: _216  and  _219
REMARK   93  A    between atoms: _219  and  _220
REMARK   94  A    between atoms: _220  and  _221
REMARK   95  A    between atoms: _221  and  _222
REMARK   96  A    between atoms: _222  and  _223
REMARK   97  A    between atoms: _227  and  _229
REMARK   98  A    between atoms: _229  and  _230
REMARK   99  A    between atoms: _229  and  _232
REMARK  100  A    between atoms: _232  and  _233
REMARK  101  A    between atoms: _233  and  _234
REMARK  102  A    between atoms: _234  and  _235
REMARK  103  A    between atoms: _244  and  _246
REMARK  104  A    between atoms: _246  and  _247
REMARK  105  A    between atoms: _246  and  _249
REMARK  106  A    between atoms: _249  and  _250
REMARK  107  A    between atoms: _253  and  _255
REMARK  108  A    between atoms: _255  and  _256
REMARK  109  A    between atoms: _255  and  _258
REMARK  110  A    between atoms: _258  and  _259
REMARK  111  A    between atoms: _264  and  _266
REMARK  112  A    between atoms: _266  and  _267
REMARK  113  A    between atoms: _266  and  _269
REMARK  114  A    between atoms: _269  and  _270
REMARK  115  A    between atoms: _270  and  _271
REMARK  116  A    between atoms: _271  and  _272
REMARK  117  A    between atoms: _272  and  _273
REMARK  118  A    between atoms: _277  and  _279
REMARK  119  A    between atoms: _279  and  _280
REMARK  120  A    between atoms: _279  and  _282
REMARK  121  A    between atoms: _282  and  _283
REMARK  122  A    between atoms: _288  and  _290
REMARK  123  A    between atoms: _290  and  _291
REMARK  124  A    between atoms: _290  and  _293
REMARK  125  A    between atoms: _293  and  _294
REMARK  126  A    between atoms: _294  and  _295
REMARK  127  A    between atoms: _295  and  _296
REMARK  128  A    between atoms: _305  and  _307
REMARK  129  A    between atoms: _307  and  _308
REMARK  130  A    between atoms: _307  and  _310
REMARK  131  A    between atoms: _310  and  _311
REMARK  132  A    between atoms: _316  and  _318
REMARK  133  A    between atoms: _318  and  _319
REMARK  134  A    between atoms: _318  and  _321
REMARK  135  A    between atoms: _321  and  _322
REMARK  136  A    between atoms: _322  and  _323
REMARK  137  A    between atoms: _323  and  _324
REMARK  138  A    between atoms: _324  and  _325
REMARK                            x       y       z     vdW  Elec       q    Type
REMARK                         _______ _______ _______ _____ _____    ______ ____
ROOT
ATOM      1  O   HOH     1      25.702  41.891  11.348  0.00  0.00    +0.000 OA
ENDROOT
TORSDOF 0
REMARK  Name = ../refined-set-2016/1h0a/1h0a_pocket.pdb
REMARK  138 active torsions:
REMARK  status: ('A' for Active; 'I' for Inactive)
REMARK    1  A    between atoms: _1  and  _5
REMARK    2  A    between atoms: _5  and  _6
REMARK    3  A    between atoms: _5  and  _8
REMARK    4  A    between atoms: _9  and  _10
REMARK    5  A    between atoms: _12  and  _14
REMARK    6  A    between atoms: _14  and  _15
REMARK    7  A    between atoms: _14  and  _17
REMARK    8  A    between atoms: _17  and  _18
REMARK    9  A    between atoms: _21  and  _23
REMARK   10  A    between atoms: _23  and  _24
REMARK   11  A    between atoms: _23  and  _26
REMARK   12  A    between atoms: _26  and  _27
REMARK   13  A    between atoms: _29  and  _31
REMARK   14  A    between atoms: _31  and  _32
REMARK   15  A    between atoms: _31  and  _34
REMARK   16  A    between atoms: _34  and  _35
REMARK   17  A    between atoms: _37  and  _39
REMARK   18  A    between atoms: _39  and  _40
REMARK   19  A    between atoms: _39  and  _42
REMARK   20  A    between atoms: _42  and  _43
REMARK   21  A    between atoms: _46  and  _48
REMARK   22  A    between atoms: _48  and  _49
REMARK   23  A    between atoms: _48  and  _51
REMARK   24  A    between atoms: _51  and  _52
REMARK   25  A    between atoms: _52  and  _53
REMARK   26  A    between atoms: _53  and  _54
REMARK   27  A    between atoms: _63  and  _65
REMARK   28  A    between atoms: _65  and  _66
REMARK   29  A    between atoms: _65  and  _68
REMARK   30  A    between atoms: _68  and  _69
REMARK   31  A    between atoms: _69  and  _70
REMARK   32  A    between atoms: _70  and  _71
REMARK   33  A    between atoms: _80  and  _82
REMARK   34  A    between atoms: _82  and  _83
REMARK   35  A    between atoms: _82  and  _85
REMARK   36  A    between atoms: _85  and  _86
REMARK   37  A    between atoms: _86  and  _87
REMARK   38  A    between atoms: _92  and  _94
REMARK   39  A    between atoms: _94  and  _95
REMARK   40  A    between atoms: _94  and  _97
REMARK   41  A    between atoms: _97  and  _98
REMARK   42  A    between atoms: _98  and  _99
REMARK   43  A    between atoms: _99  and  _100
REMARK   44  A    between atoms: _100  and  _101
REMARK   45  A    between atoms: _105  and  _107
REMARK   46  A    between atoms: _107  and  _108
REMARK   47  A    between atoms: _107  and  _110
REMARK   48  A    between atoms: _110  and  _111
REMARK   49  A    between atoms: _116  and  _118
REMARK   50  A    between atoms: _118  and  _119
REMARK   51  A    between atoms: _118  and  _121
REMARK   52  A    between atoms: _121  and  _122
REMARK   53  A    between atoms: _127  and  _129
REMARK   54  A    between atoms: _129  and  _130
REMARK   55  A    between atoms: _129  and  _132
REMARK   56  A    between atoms: _132  and  _133
REMARK   57  A    between atoms: _138  and  _139
REMARK   58  A    between atoms: _141  and  _143
REMARK   59  A    between atoms: _143  and  _144
REMARK   60  A    between atoms: _143  and  _146
REMARK   61  A    between atoms: _146  and  _147
REMARK   62  A    between atoms: _147  and  _148
REMARK   63  A    between atoms: _148  and  _149
REMARK   64  A    between atoms: _158  and  _160
REMARK   65  A    between atoms: _160  and  _161
REMARK   66  A    between atoms: _160  and  _163
REMARK   67  A    between atoms: _163  and  _164
REMARK   68  A    between atoms: _164  and  _165
REMARK   69  A    between atoms: _168  and  _170
REMARK   70  A    between atoms: _170  and  _171
REMARK   71  A    between atoms: _170  and  _173
REMARK   72  A    between atoms: _173  and  _174
REMARK   73  A    between atoms: _177  and  _179
REMARK   74  A    between atoms: _179  and  _180
REMARK   75  A    between atoms: _179  and  _182
REMARK   76  A    between atoms: _182  and  _183
REMARK   77  A    between atoms: _185  and  _187
REMARK   78  A    between atoms: _187  and  _188
REMARK   79  A    between atoms: _187  and  _190
REMARK   80  A    between atoms: _190  and  _191
REMARK   81  A    between atoms: _196  and  _198
REMARK   82  A    between atoms: _198  and  _199
REMARK   83  A    between atoms: _198  and  _201
REMARK   84  A    between atoms: _201  and  _202
REMARK   85  A    between atoms: _205  and  _207
REMARK   86  A    between atoms: _207  and  _208
REMARK   87  A    between atoms: _207  and  _210
REMARK   88  A    between atoms: _210  and  _211
REMARK   89  A    between atoms: _211  and  _212
REMARK   90  A    between atoms: _214  and  _216
REMARK   91  A    between atoms: _216  and  _217
REMARK   92  A    between atoms: _216  and  _219
REMARK   93  A    between atoms: _219  and  _220
REMARK   94  A    between atoms: _220  and  _221
REMARK   95  A    between atoms: _221  and  _222
REMARK   96  A    between atoms: _222  and  _223
REMARK   97  A    between atoms: _227  and  _229
REMARK   98  A    between atoms: _229  and  _230
REMARK   99  A    between atoms: _229  and  _232
REMARK  100  A    between atoms: _232  and  _233
REMARK  101  A    between atoms: _233  and  _234
REMARK  102  A    between atoms: _234  and  _235
REMARK  103  A    between atoms: _244  and  _246
REMARK  104  A    between atoms: _246  and  _247
REMARK  105  A    between atoms: _246  and  _249
REMARK  106  A    between atoms: _249  and  _250
REMARK  107  A    between atoms: _253  and  _255
REMARK  108  A    between atoms: _255  and  _256
REMARK  109  A    between atoms: _255  and  _258
REMARK  110  A    between atoms: _258  and  _259
REMARK  111  A    between atoms: _264  and  _266
REMARK  112  A    between atoms: _266  and  _267
REMARK  113  A    between atoms: _266  and  _269
REMARK  114  A    between atoms: _269  and  _270
REMARK  115  A    between atoms: _270  and  _271
REMARK  116  A    between atoms: _271  and  _272
REMARK  117  A    between atoms: _272  and  _273
REMARK  118  A    between atoms: _277  and  _279
REMARK  119  A    between atoms: _279  and  _280
REMARK  120  A    between atoms: _279  and  _282
REMARK  121  A    between atoms: _282  and  _283
REMARK  122  A    between atoms: _288  and  _290
REMARK  123  A    between atoms: _290  and  _291
REMARK  124  A    between atoms: _290  and  _293
REMARK  125  A    between atoms: _293  and  _294
REMARK  126  A    between atoms: _294  and  _295
REMARK  127  A    between atoms: _295  and  _296
REMARK  128  A    between atoms: _305  and  _307
REMARK  129  A    between atoms: _307  and  _308
REMARK  130  A    between atoms: _307  and  _310
REMARK  131  A    between atoms: _310  and  _311
REMARK  132  A    between atoms: _316  and  _318
REMARK  133  A    between atoms: _318  and  _319
REMARK  134  A    between atoms: _318  and  _321
REMARK  135  A    between atoms: _321  and  _322
REMARK  136  A    between atoms: _322  and  _323
REMARK  137  A    between atoms: _323  and  _324
REMARK  138  A    between atoms: _324  and  _325
REMARK                            x       y       z     vdW  Elec       q    Type
REMARK                         _______ _______ _______ _____ _____    ______ ____
ROOT
ATOM      1  O   HOH     1      17.065  25.383   6.030  0.00  0.00    +0.000 OA
ENDROOT
TORSDOF 0
REMARK  Name = ../refined-set-2016/1h0a/1h0a_pocket.pdb
REMARK  138 active torsions:
REMARK  status: ('A' for Active; 'I' for Inactive)
REMARK    1  A    between atoms: _1  and  _5
REMARK    2  A    between atoms: _5  and  _6
REMARK    3  A    between atoms: _5  and  _8
REMARK    4  A    between atoms: _9  and  _10
REMARK    5  A    between atoms: _12  and  _14
REMARK    6  A    between atoms: _14  and  _15
REMARK    7  A    between atoms: _14  and  _17
REMARK    8  A    between atoms: _17  and  _18
REMARK    9  A    between atoms: _21  and  _23
REMARK   10  A    between atoms: _23  and  _24
REMARK   11  A    between atoms: _23  and  _26
REMARK   12  A    between atoms: _26  and  _27
REMARK   13  A    between atoms: _29  and  _31
REMARK   14  A    between atoms: _31  and  _32
REMARK   15  A    between atoms: _31  and  _34
REMARK   16  A    between atoms: _34  and  _35
REMARK   17  A    between atoms: _37  and  _39
REMARK   18  A    between atoms: _39  and  _40
REMARK   19  A    between atoms: _39  and  _42
REMARK   20  A    between atoms: _42  and  _43
REMARK   21  A    between atoms: _46  and  _48
REMARK   22  A    between atoms: _48  and  _49
REMARK   23  A    between atoms: _48  and  _51
REMARK   24  A    between atoms: _51  and  _52
REMARK   25  A    between atoms: _52  and  _53
REMARK   26  A    between atoms: _53  and  _54
REMARK   27  A    between atoms: _63  and  _65
REMARK   28  A    between atoms: _65  and  _66
REMARK   29  A    between atoms: _65  and  _68
REMARK   30  A    between atoms: _68  and  _69
REMARK   31  A    between atoms: _69  and  _70
REMARK   32  A    between atoms: _70  and  _71
REMARK   33  A    between atoms: _80  and  _82
REMARK   34  A    between atoms: _82  and  _83
REMARK   35  A    between atoms: _82  and  _85
REMARK   36  A    between atoms: _85  and  _86
REMARK   37  A    between atoms: _86  and  _87
REMARK   38  A    between atoms: _92  and  _94
REMARK   39  A    between atoms: _94  and  _95
REMARK   40  A    between atoms: _94  and  _97
REMARK   41  A    between atoms: _97  and  _98
REMARK   42  A    between atoms: _98  and  _99
REMARK   43  A    between atoms: _99  and  _100
REMARK   44  A    between atoms: _100  and  _101
REMARK   45  A    between atoms: _105  and  _107
REMARK   46  A    between atoms: _107  and  _108
REMARK   47  A    between atoms: _107  and  _110
REMARK   48  A    between atoms: _110  and  _111
REMARK   49  A    between atoms: _116  and  _118
REMARK   50  A    between atoms: _118  and  _119
REMARK   51  A    between atoms: _118  and  _121
REMARK   52  A    between atoms: _121  and  _122
REMARK   53  A    between atoms: _127  and  _129
REMARK   54  A    between atoms: _129  and  _130
REMARK   55  A    between atoms: _129  and  _132
REMARK   56  A    between atoms: _132  and  _133
REMARK   57  A    between atoms: _138  and  _139
REMARK   58  A    between atoms: _141  and  _143
REMARK   59  A    between atoms: _143  and  _144
REMARK   60  A    between atoms: _143  and  _146
REMARK   61  A    between atoms: _146  and  _147
REMARK   62  A    between atoms: _147  and  _148
REMARK   63  A    between atoms: _148  and  _149
REMARK   64  A    between atoms: _158  and  _160
REMARK   65  A    between atoms: _160  and  _161
REMARK   66  A    between atoms: _160  and  _163
REMARK   67  A    between atoms: _163  and  _164
REMARK   68  A    between atoms: _164  and  _165
REMARK   69  A    between atoms: _168  and  _170
REMARK   70  A    between atoms: _170  and  _171
REMARK   71  A    between atoms: _170  and  _173
REMARK   72  A    between atoms: _173  and  _174
REMARK   73  A    between atoms: _177  and  _179
REMARK   74  A    between atoms: _179  and  _180
REMARK   75  A    between atoms: _179  and  _182
REMARK   76  A    between atoms: _182  and  _183
REMARK   77  A    between atoms: _185  and  _187
REMARK   78  A    between atoms: _187  and  _188
REMARK   79  A    between atoms: _187  and  _190
REMARK   80  A    between atoms: _190  and  _191
REMARK   81  A    between atoms: _196  and  _198
REMARK   82  A    between atoms: _198  and  _199
REMARK   83  A    between atoms: _198  and  _201
REMARK   84  A    between atoms: _201  and  _202
REMARK   85  A    between atoms: _205  and  _207
REMARK   86  A    between atoms: _207  and  _208
REMARK   87  A    between atoms: _207  and  _210
REMARK   88  A    between atoms: _210  and  _211
REMARK   89  A    between atoms: _211  and  _212
REMARK   90  A    between atoms: _214  and  _216
REMARK   91  A    between atoms: _216  and  _217
REMARK   92  A    between atoms: _216  and  _219
REMARK   93  A    between atoms: _219  and  _220
REMARK   94  A    between atoms: _220  and  _221
REMARK   95  A    between atoms: _221  and  _222
REMARK   96  A    between atoms: _222  and  _223
REMARK   97  A    between atoms: _227  and  _229
REMARK   98  A    between atoms: _229  and  _230
REMARK   99  A    between atoms: _229  and  _232
REMARK  100  A    between atoms: _232  and  _233
REMARK  101  A    between atoms: _233  and  _234
REMARK  102  A    between atoms: _234  and  _235
REMARK  103  A    between atoms: _244  and  _246
REMARK  104  A    between atoms: _246  and  _247
REMARK  105  A    between atoms: _246  and  _249
REMARK  106  A    between atoms: _249  and  _250
REMARK  107  A    between atoms: _253  and  _255
REMARK  108  A    between atoms: _255  and  _256
REMARK  109  A    between atoms: _255  and  _258
REMARK  110  A    between atoms: _258  and  _259
REMARK  111  A    between atoms: _264  and  _266
REMARK  112  A    between atoms: _266  and  _267
REMARK  113  A    between atoms: _266  and  _269
REMARK  114  A    between atoms: _269  and  _270
REMARK  115  A    between atoms: _270  and  _271
REMARK  116  A    between atoms: _271  and  _272
REMARK  117  A    between atoms: _272  and  _273
REMARK  118  A    between atoms: _277  and  _279
REMARK  119  A    between atoms: _279  and  _280
REMARK  120  A    between atoms: _279  and  _282
REMARK  121  A    between atoms: _282  and  _283
REMARK  122  A    between atoms: _288  and  _290
REMARK  123  A    between atoms: _290  and  _291
REMARK  124  A    between atoms: _290  and  _293
REMARK  125  A    between atoms: _293  and  _294
REMARK  126  A    between atoms: _294  and  _295
REMARK  127  A    between atoms: _295  and  _296
REMARK  128  A    between atoms: _305  and  _307
REMARK  129  A    between atoms: _307  and  _308
REMARK  130  A    between atoms: _307  and  _310
REMARK  131  A    between atoms: _310  and  _311
REMARK  132  A    between atoms: _316  and  _318
REMARK  133  A    between atoms: _318  and  _319
REMARK  134  A    between atoms: _318  and  _321
REMARK  135  A    between atoms: _321  and  _322
REMARK  136  A    between atoms: _322  and  _323
REMARK  137  A    between atoms: _323  and  _324
REMARK  138  A    between atoms: _324  and  _325
REMARK                            x       y       z     vdW  Elec       q    Type
REMARK                         _______ _______ _______ _____ _____    ______ ____
ROOT
ATOM      1  O   HOH     1      18.429  29.578   7.683  0.00  0.00    +0.000 OA
ENDROOT
TORSDOF 0
REMARK  Name = ../refined-set-2016/1h0a/1h0a_pocket.pdb
REMARK  138 active torsions:
REMARK  status: ('A' for Active; 'I' for Inactive)
REMARK    1  A    between atoms: _1  and  _5
REMARK    2  A    between atoms: _5  and  _6
REMARK    3  A    between atoms: _5  and  _8
REMARK    4  A    between atoms: _9  and  _10
REMARK    5  A    between atoms: _12  and  _14
REMARK    6  A    between atoms: _14  and  _15
REMARK    7  A    between atoms: _14  and  _17
REMARK    8  A    between atoms: _17  and  _18
REMARK    9  A    between atoms: _21  and  _23
REMARK   10  A    between atoms: _23  and  _24
REMARK   11  A    between atoms: _23  and  _26
REMARK   12  A    between atoms: _26  and  _27
REMARK   13  A    between atoms: _29  and  _31
REMARK   14  A    between atoms: _31  and  _32
REMARK   15  A    between atoms: _31  and  _34
REMARK   16  A    between atoms: _34  and  _35
REMARK   17  A    between atoms: _37  and  _39
REMARK   18  A    between atoms: _39  and  _40
REMARK   19  A    between atoms: _39  and  _42
REMARK   20  A    between atoms: _42  and  _43
REMARK   21  A    between atoms: _46  and  _48
REMARK   22  A    between atoms: _48  and  _49
REMARK   23  A    between atoms: _48  and  _51
REMARK   24  A    between atoms: _51  and  _52
REMARK   25  A    between atoms: _52  and  _53
REMARK   26  A    between atoms: _53  and  _54
REMARK   27  A    between atoms: _63  and  _65
REMARK   28  A    between atoms: _65  and  _66
REMARK   29  A    between atoms: _65  and  _68
REMARK   30  A    between atoms: _68  and  _69
REMARK   31  A    between atoms: _69  and  _70
REMARK   32  A    between atoms: _70  and  _71
REMARK   33  A    between atoms: _80  and  _82
REMARK   34  A    between atoms: _82  and  _83
REMARK   35  A    between atoms: _82  and  _85
REMARK   36  A    between atoms: _85  and  _86
REMARK   37  A    between atoms: _86  and  _87
REMARK   38  A    between atoms: _92  and  _94
REMARK   39  A    between atoms: _94  and  _95
REMARK   40  A    between atoms: _94  and  _97
REMARK   41  A    between atoms: _97  and  _98
REMARK   42  A    between atoms: _98  and  _99
REMARK   43  A    between atoms: _99  and  _100
REMARK   44  A    between atoms: _100  and  _101
REMARK   45  A    between atoms: _105  and  _107
REMARK   46  A    between atoms: _107  and  _108
REMARK   47  A    between atoms: _107  and  _110
REMARK   48  A    between atoms: _110  and  _111
REMARK   49  A    between atoms: _116  and  _118
REMARK   50  A    between atoms: _118  and  _119
REMARK   51  A    between atoms: _118  and  _121
REMARK   52  A    between atoms: _121  and  _122
REMARK   53  A    between atoms: _127  and  _129
REMARK   54  A    between atoms: _129  and  _130
REMARK   55  A    between atoms: _129  and  _132
REMARK   56  A    between atoms: _132  and  _133
REMARK   57  A    between atoms: _138  and  _139
REMARK   58  A    between atoms: _141  and  _143
REMARK   59  A    between atoms: _143  and  _144
REMARK   60  A    between atoms: _143  and  _146
REMARK   61  A    between atoms: _146  and  _147
REMARK   62  A    between atoms: _147  and  _148
REMARK   63  A    between atoms: _148  and  _149
REMARK   64  A    between atoms: _158  and  _160
REMARK   65  A    between atoms: _160  and  _161
REMARK   66  A    between atoms: _160  and  _163
REMARK   67  A    between atoms: _163  and  _164
REMARK   68  A    between atoms: _164  and  _165
REMARK   69  A    between atoms: _168  and  _170
REMARK   70  A    between atoms: _170  and  _171
REMARK   71  A    between atoms: _170  and  _173
REMARK   72  A    between atoms: _173  and  _174
REMARK   73  A    between atoms: _177  and  _179
REMARK   74  A    between atoms: _179  and  _180
REMARK   75  A    between atoms: _179  and  _182
REMARK   76  A    between atoms: _182  and  _183
REMARK   77  A    between atoms: _185  and  _187
REMARK   78  A    between atoms: _187  and  _188
REMARK   79  A    between atoms: _187  and  _190
REMARK   80  A    between atoms: _190  and  _191
REMARK   81  A    between atoms: _196  and  _198
REMARK   82  A    between atoms: _198  and  _199
REMARK   83  A    between atoms: _198  and  _201
REMARK   84  A    between atoms: _201  and  _202
REMARK   85  A    between atoms: _205  and  _207
REMARK   86  A    between atoms: _207  and  _208
REMARK   87  A    between atoms: _207  and  _210
REMARK   88  A    between atoms: _210  and  _211
REMARK   89  A    between atoms: _211  and  _212
REMARK   90  A    between atoms: _214  and  _216
REMARK   91  A    between atoms: _216  and  _217
REMARK   92  A    between atoms: _216  and  _219
REMARK   93  A    between atoms: _219  and  _220
REMARK   94  A    between atoms: _220  and  _221
REMARK   95  A    between atoms: _221  and  _222
REMARK   96  A    between atoms: _222  and  _223
REMARK   97  A    between atoms: _227  and  _229
REMARK   98  A    between atoms: _229  and  _230
REMARK   99  A    between atoms: _229  and  _232
REMARK  100  A    between atoms: _232  and  _233
REMARK  101  A    between atoms: _233  and  _234
REMARK  102  A    between atoms: _234  and  _235
REMARK  103  A    between atoms: _244  and  _246
REMARK  104  A    between atoms: _246  and  _247
REMARK  105  A    between atoms: _246  and  _249
REMARK  106  A    between atoms: _249  and  _250
REMARK  107  A    between atoms: _253  and  _255
REMARK  108  A    between atoms: _255  and  _256
REMARK  109  A    between atoms: _255  and  _258
REMARK  110  A    between atoms: _258  and  _259
REMARK  111  A    between atoms: _264  and  _266
REMARK  112  A    between atoms: _266  and  _267
REMARK  113  A    between atoms: _266  and  _269
REMARK  114  A    between atoms: _269  and  _270
REMARK  115  A    between atoms: _270  and  _271
REMARK  116  A    between atoms: _271  and  _272
REMARK  117  A    between atoms: _272  and  _273
REMARK  118  A    between atoms: _277  and  _279
REMARK  119  A    between atoms: _279  and  _280
REMARK  120  A    between atoms: _279  and  _282
REMARK  121  A    between atoms: _282  and  _283
REMARK  122  A    between atoms: _288  and  _290
REMARK  123  A    between atoms: _290  and  _291
REMARK  124  A    between atoms: _290  and  _293
REMARK  125  A    between atoms: _293  and  _294
REMARK  126  A    between atoms: _294  and  _295
REMARK  127  A    between atoms: _295  and  _296
REMARK  128  A    between atoms: _305  and  _307
REMARK  129  A    between atoms: _307  and  _308
REMARK  130  A    between atoms: _307  and  _310
REMARK  131  A    between atoms: _310  and  _311
REMARK  132  A    between atoms: _316  and  _318
REMARK  133  A    between atoms: _318  and  _319
REMARK  134  A    between atoms: _318  and  _321
REMARK  135  A    between atoms: _321  and  _322
REMARK  136  A    between atoms: _322  and  _323
REMARK  137  A    between atoms: _323  and  _324
REMARK  138  A    between atoms: _324  and  _325
REMARK                            x       y       z     vdW  Elec       q    Type
REMARK                         _______ _______ _______ _____ _____    ______ ____
ROOT
ATOM      1  O   HOH     1      20.420  29.000   4.341  0.00  0.00    +0.000 OA
ENDROOT
TORSDOF 0
REMARK  Name = ../refined-set-2016/1h0a/1h0a_pocket.pdb
REMARK  138 active torsions:
REMARK  status: ('A' for Active; 'I' for Inactive)
REMARK    1  A    between atoms: _1  and  _5
REMARK    2  A    between atoms: _5  and  _6
REMARK    3  A    between atoms: _5  and  _8
REMARK    4  A    between atoms: _9  and  _10
REMARK    5  A    between atoms: _12  and  _14
REMARK    6  A    between atoms: _14  and  _15
REMARK    7  A    between atoms: _14  and  _17
REMARK    8  A    between atoms: _17  and  _18
REMARK    9  A    between atoms: _21  and  _23
REMARK   10  A    between atoms: _23  and  _24
REMARK   11  A    between atoms: _23  and  _26
REMARK   12  A    between atoms: _26  and  _27
REMARK   13  A    between atoms: _29  and  _31
REMARK   14  A    between atoms: _31  and  _32
REMARK   15  A    between atoms: _31  and  _34
REMARK   16  A    between atoms: _34  and  _35
REMARK   17  A    between atoms: _37  and  _39
REMARK   18  A    between atoms: _39  and  _40
REMARK   19  A    between atoms: _39  and  _42
REMARK   20  A    between atoms: _42  and  _43
REMARK   21  A    between atoms: _46  and  _48
REMARK   22  A    between atoms: _48  and  _49
REMARK   23  A    between atoms: _48  and  _51
REMARK   24  A    between atoms: _51  and  _52
REMARK   25  A    between atoms: _52  and  _53
REMARK   26  A    between atoms: _53  and  _54
REMARK   27  A    between atoms: _63  and  _65
REMARK   28  A    between atoms: _65  and  _66
REMARK   29  A    between atoms: _65  and  _68
REMARK   30  A    between atoms: _68  and  _69
REMARK   31  A    between atoms: _69  and  _70
REMARK   32  A    between atoms: _70  and  _71
REMARK   33  A    between atoms: _80  and  _82
REMARK   34  A    between atoms: _82  and  _83
REMARK   35  A    between atoms: _82  and  _85
REMARK   36  A    between atoms: _85  and  _86
REMARK   37  A    between atoms: _86  and  _87
REMARK   38  A    between atoms: _92  and  _94
REMARK   39  A    between atoms: _94  and  _95
REMARK   40  A    between atoms: _94  and  _97
REMARK   41  A    between atoms: _97  and  _98
REMARK   42  A    between atoms: _98  and  _99
REMARK   43  A    between atoms: _99  and  _100
REMARK   44  A    between atoms: _100  and  _101
REMARK   45  A    between atoms: _105  and  _107
REMARK   46  A    between atoms: _107  and  _108
REMARK   47  A    between atoms: _107  and  _110
REMARK   48  A    between atoms: _110  and  _111
REMARK   49  A    between atoms: _116  and  _118
REMARK   50  A    between atoms: _118  and  _119
REMARK   51  A    between atoms: _118  and  _121
REMARK   52  A    between atoms: _121  and  _122
REMARK   53  A    between atoms: _127  and  _129
REMARK   54  A    between atoms: _129  and  _130
REMARK   55  A    between atoms: _129  and  _132
REMARK   56  A    between atoms: _132  and  _133
REMARK   57  A    between atoms: _138  and  _139
REMARK   58  A    between atoms: _141  and  _143
REMARK   59  A    between atoms: _143  and  _144
REMARK   60  A    between atoms: _143  and  _146
REMARK   61  A    between atoms: _146  and  _147
REMARK   62  A    between atoms: _147  and  _148
REMARK   63  A    between atoms: _148  and  _149
REMARK   64  A    between atoms: _158  and  _160
REMARK   65  A    between atoms: _160  and  _161
REMARK   66  A    between atoms: _160  and  _163
REMARK   67  A    between atoms: _163  and  _164
REMARK   68  A    between atoms: _164  and  _165
REMARK   69  A    between atoms: _168  and  _170
REMARK   70  A    between atoms: _170  and  _171
REMARK   71  A    between atoms: _170  and  _173
REMARK   72  A    between atoms: _173  and  _174
REMARK   73  A    between atoms: _177  and  _179
REMARK   74  A    between atoms: _179  and  _180
REMARK   75  A    between atoms: _179  and  _182
REMARK   76  A    between atoms: _182  and  _183
REMARK   77  A    between atoms: _185  and  _187
REMARK   78  A    between atoms: _187  and  _188
REMARK   79  A    between atoms: _187  and  _190
REMARK   80  A    between atoms: _190  and  _191
REMARK   81  A    between atoms: _196  and  _198
REMARK   82  A    between atoms: _198  and  _199
REMARK   83  A    between atoms: _198  and  _201
REMARK   84  A    between atoms: _201  and  _202
REMARK   85  A    between atoms: _205  and  _207
REMARK   86  A    between atoms: _207  and  _208
REMARK   87  A    between atoms: _207  and  _210
REMARK   88  A    between atoms: _210  and  _211
REMARK   89  A    between atoms: _211  and  _212
REMARK   90  A    between atoms: _214  and  _216
REMARK   91  A    between atoms: _216  and  _217
REMARK   92  A    between atoms: _216  and  _219
REMARK   93  A    between atoms: _219  and  _220
REMARK   94  A    between atoms: _220  and  _221
REMARK   95  A    between atoms: _221  and  _222
REMARK   96  A    between atoms: _222  and  _223
REMARK   97  A    between atoms: _227  and  _229
REMARK   98  A    between atoms: _229  and  _230
REMARK   99  A    between atoms: _229  and  _232
REMARK  100  A    between atoms: _232  and  _233
REMARK  101  A    between atoms: _233  and  _234
REMARK  102  A    between atoms: _234  and  _235
REMARK  103  A    between atoms: _244  and  _246
REMARK  104  A    between atoms: _246  and  _247
REMARK  105  A    between atoms: _246  and  _249
REMARK  106  A    between atoms: _249  and  _250
REMARK  107  A    between atoms: _253  and  _255
REMARK  108  A    between atoms: _255  and  _256
REMARK  109  A    between atoms: _255  and  _258
REMARK  110  A    between atoms: _258  and  _259
REMARK  111  A    between atoms: _264  and  _266
REMARK  112  A    between atoms: _266  and  _267
REMARK  113  A    between atoms: _266  and  _269
REMARK  114  A    between atoms: _269  and  _270
REMARK  115  A    between atoms: _270  and  _271
REMARK  116  A    between atoms: _271  and  _272
REMARK  117  A    between atoms: _272  and  _273
REMARK  118  A    between atoms: _277  and  _279
REMARK  119  A    between atoms: _279  and  _280
REMARK  120  A    between atoms: _279  and  _282
REMARK  121  A    between atoms: _282  and  _283
REMARK  122  A    between atoms: _288  and  _290
REMARK  123  A    between atoms: _290  and  _291
REMARK  124  A    between atoms: _290  and  _293
REMARK  125  A    between atoms: _293  and  _294
REMARK  126  A    between atoms: _294  and  _295
REMARK  127  A    between atoms: _295  and  _296
REMARK  128  A    between atoms: _305  and  _307
REMARK  129  A    between atoms: _307  and  _308
REMARK  130  A    between atoms: _307  and  _310
REMARK  131  A    between atoms: _310  and  _311
REMARK  132  A    between atoms: _316  and  _318
REMARK  133  A    between atoms: _318  and  _319
REMARK  134  A    between atoms: _318  and  _321
REMARK  135  A    between atoms: _321  and  _322
REMARK  136  A    between atoms: _322  and  _323
REMARK  137  A    between atoms: _323  and  _324
REMARK  138  A    between atoms: _324  and  _325
REMARK                            x       y       z     vdW  Elec       q    Type
REMARK                         _______ _______ _______ _____ _____    ______ ____
ROOT
ATOM      1  O   HOH     1      28.583  31.856   3.425  0.00  0.00    +0.000 OA
ENDROOT
TORSDOF 0
REMARK  Name = ../refined-set-2016/1h0a/1h0a_pocket.pdb
REMARK  138 active torsions:
REMARK  status: ('A' for Active; 'I' for Inactive)
REMARK    1  A    between atoms: _1  and  _5
REMARK    2  A    between atoms: _5  and  _6
REMARK    3  A    between atoms: _5  and  _8
REMARK    4  A    between atoms: _9  and  _10
REMARK    5  A    between atoms: _12  and  _14
REMARK    6  A    between atoms: _14  and  _15
REMARK    7  A    between atoms: _14  and  _17
REMARK    8  A    between atoms: _17  and  _18
REMARK    9  A    between atoms: _21  and  _23
REMARK   10  A    between atoms: _23  and  _24
REMARK   11  A    between atoms: _23  and  _26
REMARK   12  A    between atoms: _26  and  _27
REMARK   13  A    between atoms: _29  and  _31
REMARK   14  A    between atoms: _31  and  _32
REMARK   15  A    between atoms: _31  and  _34
REMARK   16  A    between atoms: _34  and  _35
REMARK   17  A    between atoms: _37  and  _39
REMARK   18  A    between atoms: _39  and  _40
REMARK   19  A    between atoms: _39  and  _42
REMARK   20  A    between atoms: _42  and  _43
REMARK   21  A    between atoms: _46  and  _48
REMARK   22  A    between atoms: _48  and  _49
REMARK   23  A    between atoms: _48  and  _51
REMARK   24  A    between atoms: _51  and  _52
REMARK   25  A    between atoms: _52  and  _53
REMARK   26  A    between atoms: _53  and  _54
REMARK   27  A    between atoms: _63  and  _65
REMARK   28  A    between atoms: _65  and  _66
REMARK   29  A    between atoms: _65  and  _68
REMARK   30  A    between atoms: _68  and  _69
REMARK   31  A    between atoms: _69  and  _70
REMARK   32  A    between atoms: _70  and  _71
REMARK   33  A    between atoms: _80  and  _82
REMARK   34  A    between atoms: _82  and  _83
REMARK   35  A    between atoms: _82  and  _85
REMARK   36  A    between atoms: _85  and  _86
REMARK   37  A    between atoms: _86  and  _87
REMARK   38  A    between atoms: _92  and  _94
REMARK   39  A    between atoms: _94  and  _95
REMARK   40  A    between atoms: _94  and  _97
REMARK   41  A    between atoms: _97  and  _98
REMARK   42  A    between atoms: _98  and  _99
REMARK   43  A    between atoms: _99  and  _100
REMARK   44  A    between atoms: _100  and  _101
REMARK   45  A    between atoms: _105  and  _107
REMARK   46  A    between atoms: _107  and  _108
REMARK   47  A    between atoms: _107  and  _110
REMARK   48  A    between atoms: _110  and  _111
REMARK   49  A    between atoms: _116  and  _118
REMARK   50  A    between atoms: _118  and  _119
REMARK   51  A    between atoms: _118  and  _121
REMARK   52  A    between atoms: _121  and  _122
REMARK   53  A    between atoms: _127  and  _129
REMARK   54  A    between atoms: _129  and  _130
REMARK   55  A    between atoms: _129  and  _132
REMARK   56  A    between atoms: _132  and  _133
REMARK   57  A    between atoms: _138  and  _139
REMARK   58  A    between atoms: _141  and  _143
REMARK   59  A    between atoms: _143  and  _144
REMARK   60  A    between atoms: _143  and  _146
REMARK   61  A    between atoms: _146  and  _147
REMARK   62  A    between atoms: _147  and  _148
REMARK   63  A    between atoms: _148  and  _149
REMARK   64  A    between atoms: _158  and  _160
REMARK   65  A    between atoms: _160  and  _161
REMARK   66  A    between atoms: _160  and  _163
REMARK   67  A    between atoms: _163  and  _164
REMARK   68  A    between atoms: _164  and  _165
REMARK   69  A    between atoms: _168  and  _170
REMARK   70  A    between atoms: _170  and  _171
REMARK   71  A    between atoms: _170  and  _173
REMARK   72  A    between atoms: _173  and  _174
REMARK   73  A    between atoms: _177  and  _179
REMARK   74  A    between atoms: _179  and  _180
REMARK   75  A    between atoms: _179  and  _182
REMARK   76  A    between atoms: _182  and  _183
REMARK   77  A    between atoms: _185  and  _187
REMARK   78  A    between atoms: _187  and  _188
REMARK   79  A    between atoms: _187  and  _190
REMARK   80  A    between atoms: _190  and  _191
REMARK   81  A    between atoms: _196  and  _198
REMARK   82  A    between atoms: _198  and  _199
REMARK   83  A    between atoms: _198  and  _201
REMARK   84  A    between atoms: _201  and  _202
REMARK   85  A    between atoms: _205  and  _207
REMARK   86  A    between atoms: _207  and  _208
REMARK   87  A    between atoms: _207  and  _210
REMARK   88  A    between atoms: _210  and  _211
REMARK   89  A    between atoms: _211  and  _212
REMARK   90  A    between atoms: _214  and  _216
REMARK   91  A    between atoms: _216  and  _217
REMARK   92  A    between atoms: _216  and  _219
REMARK   93  A    between atoms: _219  and  _220
REMARK   94  A    between atoms: _220  and  _221
REMARK   95  A    between atoms: _221  and  _222
REMARK   96  A    between atoms: _222  and  _223
REMARK   97  A    between atoms: _227  and  _229
REMARK   98  A    between atoms: _229  and  _230
REMARK   99  A    between atoms: _229  and  _232
REMARK  100  A    between atoms: _232  and  _233
REMARK  101  A    between atoms: _233  and  _234
REMARK  102  A    between atoms: _234  and  _235
REMARK  103  A    between atoms: _244  and  _246
REMARK  104  A    between atoms: _246  and  _247
REMARK  105  A    between atoms: _246  and  _249
REMARK  106  A    between atoms: _249  and  _250
REMARK  107  A    between atoms: _253  and  _255
REMARK  108  A    between atoms: _255  and  _256
REMARK  109  A    between atoms: _255  and  _258
REMARK  110  A    between atoms: _258  and  _259
REMARK  111  A    between atoms: _264  and  _266
REMARK  112  A    between atoms: _266  and  _267
REMARK  113  A    between atoms: _266  and  _269
REMARK  114  A    between atoms: _269  and  _270
REMARK  115  A    between atoms: _270  and  _271
REMARK  116  A    between atoms: _271  and  _272
REMARK  117  A    between atoms: _272  and  _273
REMARK  118  A    between atoms: _277  and  _279
REMARK  119  A    between atoms: _279  and  _280
REMARK  120  A    between atoms: _279  and  _282
REMARK  121  A    between atoms: _282  and  _283
REMARK  122  A    between atoms: _288  and  _290
REMARK  123  A    between atoms: _290  and  _291
REMARK  124  A    between atoms: _290  and  _293
REMARK  125  A    between atoms: _293  and  _294
REMARK  126  A    between atoms: _294  and  _295
REMARK  127  A    between atoms: _295  and  _296
REMARK  128  A    between atoms: _305  and  _307
REMARK  129  A    between atoms: _307  and  _308
REMARK  130  A    between atoms: _307  and  _310
REMARK  131  A    between atoms: _310  and  _311
REMARK  132  A    between atoms: _316  and  _318
REMARK  133  A    between atoms: _318  and  _319
REMARK  134  A    between atoms: _318  and  _321
REMARK  135  A    between atoms: _321  and  _322
REMARK  136  A    between atoms: _322  and  _323
REMARK  137  A    between atoms: _323  and  _324
REMARK  138  A    between atoms: _324  and  _325
REMARK                            x       y       z     vdW  Elec       q    Type
REMARK                         _______ _______ _______ _____ _____    ______ ____
ROOT
ATOM      1  O   HOH     1      31.458  28.679   7.006  0.00  0.00    +0.000 OA
ENDROOT
TORSDOF 0
REMARK  Name = ../refined-set-2016/1h0a/1h0a_pocket.pdb
REMARK  138 active torsions:
REMARK  status: ('A' for Active; 'I' for Inactive)
REMARK    1  A    between atoms: _1  and  _5
REMARK    2  A    between atoms: _5  and  _6
REMARK    3  A    between atoms: _5  and  _8
REMARK    4  A    between atoms: _9  and  _10
REMARK    5  A    between atoms: _12  and  _14
REMARK    6  A    between atoms: _14  and  _15
REMARK    7  A    between atoms: _14  and  _17
REMARK    8  A    between atoms: _17  and  _18
REMARK    9  A    between atoms: _21  and  _23
REMARK   10  A    between atoms: _23  and  _24
REMARK   11  A    between atoms: _23  and  _26
REMARK   12  A    between atoms: _26  and  _27
REMARK   13  A    between atoms: _29  and  _31
REMARK   14  A    between atoms: _31  and  _32
REMARK   15  A    between atoms: _31  and  _34
REMARK   16  A    between atoms: _34  and  _35
REMARK   17  A    between atoms: _37  and  _39
REMARK   18  A    between atoms: _39  and  _40
REMARK   19  A    between atoms: _39  and  _42
REMARK   20  A    between atoms: _42  and  _43
REMARK   21  A    between atoms: _46  and  _48
REMARK   22  A    between atoms: _48  and  _49
REMARK   23  A    between atoms: _48  and  _51
REMARK   24  A    between atoms: _51  and  _52
REMARK   25  A    between atoms: _52  and  _53
REMARK   26  A    between atoms: _53  and  _54
REMARK   27  A    between atoms: _63  and  _65
REMARK   28  A    between atoms: _65  and  _66
REMARK   29  A    between atoms: _65  and  _68
REMARK   30  A    between atoms: _68  and  _69
REMARK   31  A    between atoms: _69  and  _70
REMARK   32  A    between atoms: _70  and  _71
REMARK   33  A    between atoms: _80  and  _82
REMARK   34  A    between atoms: _82  and  _83
REMARK   35  A    between atoms: _82  and  _85
REMARK   36  A    between atoms: _85  and  _86
REMARK   37  A    between atoms: _86  and  _87
REMARK   38  A    between atoms: _92  and  _94
REMARK   39  A    between atoms: _94  and  _95
REMARK   40  A    between atoms: _94  and  _97
REMARK   41  A    between atoms: _97  and  _98
REMARK   42  A    between atoms: _98  and  _99
REMARK   43  A    between atoms: _99  and  _100
REMARK   44  A    between atoms: _100  and  _101
REMARK   45  A    between atoms: _105  and  _107
REMARK   46  A    between atoms: _107  and  _108
REMARK   47  A    between atoms: _107  and  _110
REMARK   48  A    between atoms: _110  and  _111
REMARK   49  A    between atoms: _116  and  _118
REMARK   50  A    between atoms: _118  and  _119
REMARK   51  A    between atoms: _118  and  _121
REMARK   52  A    between atoms: _121  and  _122
REMARK   53  A    between atoms: _127  and  _129
REMARK   54  A    between atoms: _129  and  _130
REMARK   55  A    between atoms: _129  and  _132
REMARK   56  A    between atoms: _132  and  _133
REMARK   57  A    between atoms: _138  and  _139
REMARK   58  A    between atoms: _141  and  _143
REMARK   59  A    between atoms: _143  and  _144
REMARK   60  A    between atoms: _143  and  _146
REMARK   61  A    between atoms: _146  and  _147
REMARK   62  A    between atoms: _147  and  _148
REMARK   63  A    between atoms: _148  and  _149
REMARK   64  A    between atoms: _158  and  _160
REMARK   65  A    between atoms: _160  and  _161
REMARK   66  A    between atoms: _160  and  _163
REMARK   67  A    between atoms: _163  and  _164
REMARK   68  A    between atoms: _164  and  _165
REMARK   69  A    between atoms: _168  and  _170
REMARK   70  A    between atoms: _170  and  _171
REMARK   71  A    between atoms: _170  and  _173
REMARK   72  A    between atoms: _173  and  _174
REMARK   73  A    between atoms: _177  and  _179
REMARK   74  A    between atoms: _179  and  _180
REMARK   75  A    between atoms: _179  and  _182
REMARK   76  A    between atoms: _182  and  _183
REMARK   77  A    between atoms: _185  and  _187
REMARK   78  A    between atoms: _187  and  _188
REMARK   79  A    between atoms: _187  and  _190
REMARK   80  A    between atoms: _190  and  _191
REMARK   81  A    between atoms: _196  and  _198
REMARK   82  A    between atoms: _198  and  _199
REMARK   83  A    between atoms: _198  and  _201
REMARK   84  A    between atoms: _201  and  _202
REMARK   85  A    between atoms: _205  and  _207
REMARK   86  A    between atoms: _207  and  _208
REMARK   87  A    between atoms: _207  and  _210
REMARK   88  A    between atoms: _210  and  _211
REMARK   89  A    between atoms: _211  and  _212
REMARK   90  A    between atoms: _214  and  _216
REMARK   91  A    between atoms: _216  and  _217
REMARK   92  A    between atoms: _216  and  _219
REMARK   93  A    between atoms: _219  and  _220
REMARK   94  A    between atoms: _220  and  _221
REMARK   95  A    between atoms: _221  and  _222
REMARK   96  A    between atoms: _222  and  _223
REMARK   97  A    between atoms: _227  and  _229
REMARK   98  A    between atoms: _229  and  _230
REMARK   99  A    between atoms: _229  and  _232
REMARK  100  A    between atoms: _232  and  _233
REMARK  101  A    between atoms: _233  and  _234
REMARK  102  A    between atoms: _234  and  _235
REMARK  103  A    between atoms: _244  and  _246
REMARK  104  A    between atoms: _246  and  _247
REMARK  105  A    between atoms: _246  and  _249
REMARK  106  A    between atoms: _249  and  _250
REMARK  107  A    between atoms: _253  and  _255
REMARK  108  A    between atoms: _255  and  _256
REMARK  109  A    between atoms: _255  and  _258
REMARK  110  A    between atoms: _258  and  _259
REMARK  111  A    between atoms: _264  and  _266
REMARK  112  A    between atoms: _266  and  _267
REMARK  113  A    between atoms: _266  and  _269
REMARK  114  A    between atoms: _269  and  _270
REMARK  115  A    between atoms: _270  and  _271
REMARK  116  A    between atoms: _271  and  _272
REMARK  117  A    between atoms: _272  and  _273
REMARK  118  A    between atoms: _277  and  _279
REMARK  119  A    between atoms: _279  and  _280
REMARK  120  A    between atoms: _279  and  _282
REMARK  121  A    between atoms: _282  and  _283
REMARK  122  A    between atoms: _288  and  _290
REMARK  123  A    between atoms: _290  and  _291
REMARK  124  A    between atoms: _290  and  _293
REMARK  125  A    between atoms: _293  and  _294
REMARK  126  A    between atoms: _294  and  _295
REMARK  127  A    between atoms: _295  and  _296
REMARK  128  A    between atoms: _305  and  _307
REMARK  129  A    between atoms: _307  and  _308
REMARK  130  A    between atoms: _307  and  _310
REMARK  131  A    between atoms: _310  and  _311
REMARK  132  A    between atoms: _316  and  _318
REMARK  133  A    between atoms: _318  and  _319
REMARK  134  A    between atoms: _318  and  _321
REMARK  135  A    between atoms: _321  and  _322
REMARK  136  A    between atoms: _322  and  _323
REMARK  137  A    between atoms: _323  and  _324
REMARK  138  A    between atoms: _324  and  _325
REMARK                            x       y       z     vdW  Elec       q    Type
REMARK                         _______ _______ _______ _____ _____    ______ ____
ROOT
ATOM      1  O   HOH     1      23.386  29.835   1.958  0.00  0.00    +0.000 OA
ENDROOT
TORSDOF 0
REMARK  Name = ../refined-set-2016/1h0a/1h0a_pocket.pdb
REMARK  138 active torsions:
REMARK  status: ('A' for Active; 'I' for Inactive)
REMARK    1  A    between atoms: _1  and  _5
REMARK    2  A    between atoms: _5  and  _6
REMARK    3  A    between atoms: _5  and  _8
REMARK    4  A    between atoms: _9  and  _10
REMARK    5  A    between atoms: _12  and  _14
REMARK    6  A    between atoms: _14  and  _15
REMARK    7  A    between atoms: _14  and  _17
REMARK    8  A    between atoms: _17  and  _18
REMARK    9  A    between atoms: _21  and  _23
REMARK   10  A    between atoms: _23  and  _24
REMARK   11  A    between atoms: _23  and  _26
REMARK   12  A    between atoms: _26  and  _27
REMARK   13  A    between atoms: _29  and  _31
REMARK   14  A    between atoms: _31  and  _32
REMARK   15  A    between atoms: _31  and  _34
REMARK   16  A    between atoms: _34  and  _35
REMARK   17  A    between atoms: _37  and  _39
REMARK   18  A    between atoms: _39  and  _40
REMARK   19  A    between atoms: _39  and  _42
REMARK   20  A    between atoms: _42  and  _43
REMARK   21  A    between atoms: _46  and  _48
REMARK   22  A    between atoms: _48  and  _49
REMARK   23  A    between atoms: _48  and  _51
REMARK   24  A    between atoms: _51  and  _52
REMARK   25  A    between atoms: _52  and  _53
REMARK   26  A    between atoms: _53  and  _54
REMARK   27  A    between atoms: _63  and  _65
REMARK   28  A    between atoms: _65  and  _66
REMARK   29  A    between atoms: _65  and  _68
REMARK   30  A    between atoms: _68  and  _69
REMARK   31  A    between atoms: _69  and  _70
REMARK   32  A    between atoms: _70  and  _71
REMARK   33  A    between atoms: _80  and  _82
REMARK   34  A    between atoms: _82  and  _83
REMARK   35  A    between atoms: _82  and  _85
REMARK   36  A    between atoms: _85  and  _86
REMARK   37  A    between atoms: _86  and  _87
REMARK   38  A    between atoms: _92  and  _94
REMARK   39  A    between atoms: _94  and  _95
REMARK   40  A    between atoms: _94  and  _97
REMARK   41  A    between atoms: _97  and  _98
REMARK   42  A    between atoms: _98  and  _99
REMARK   43  A    between atoms: _99  and  _100
REMARK   44  A    between atoms: _100  and  _101
REMARK   45  A    between atoms: _105  and  _107
REMARK   46  A    between atoms: _107  and  _108
REMARK   47  A    between atoms: _107  and  _110
REMARK   48  A    between atoms: _110  and  _111
REMARK   49  A    between atoms: _116  and  _118
REMARK   50  A    between atoms: _118  and  _119
REMARK   51  A    between atoms: _118  and  _121
REMARK   52  A    between atoms: _121  and  _122
REMARK   53  A    between atoms: _127  and  _129
REMARK   54  A    between atoms: _129  and  _130
REMARK   55  A    between atoms: _129  and  _132
REMARK   56  A    between atoms: _132  and  _133
REMARK   57  A    between atoms: _138  and  _139
REMARK   58  A    between atoms: _141  and  _143
REMARK   59  A    between atoms: _143  and  _144
REMARK   60  A    between atoms: _143  and  _146
REMARK   61  A    between atoms: _146  and  _147
REMARK   62  A    between atoms: _147  and  _148
REMARK   63  A    between atoms: _148  and  _149
REMARK   64  A    between atoms: _158  and  _160
REMARK   65  A    between atoms: _160  and  _161
REMARK   66  A    between atoms: _160  and  _163
REMARK   67  A    between atoms: _163  and  _164
REMARK   68  A    between atoms: _164  and  _165
REMARK   69  A    between atoms: _168  and  _170
REMARK   70  A    between atoms: _170  and  _171
REMARK   71  A    between atoms: _170  and  _173
REMARK   72  A    between atoms: _173  and  _174
REMARK   73  A    between atoms: _177  and  _179
REMARK   74  A    between atoms: _179  and  _180
REMARK   75  A    between atoms: _179  and  _182
REMARK   76  A    between atoms: _182  and  _183
REMARK   77  A    between atoms: _185  and  _187
REMARK   78  A    between atoms: _187  and  _188
REMARK   79  A    between atoms: _187  and  _190
REMARK   80  A    between atoms: _190  and  _191
REMARK   81  A    between atoms: _196  and  _198
REMARK   82  A    between atoms: _198  and  _199
REMARK   83  A    between atoms: _198  and  _201
REMARK   84  A    between atoms: _201  and  _202
REMARK   85  A    between atoms: _205  and  _207
REMARK   86  A    between atoms: _207  and  _208
REMARK   87  A    between atoms: _207  and  _210
REMARK   88  A    between atoms: _210  and  _211
REMARK   89  A    between atoms: _211  and  _212
REMARK   90  A    between atoms: _214  and  _216
REMARK   91  A    between atoms: _216  and  _217
REMARK   92  A    between atoms: _216  and  _219
REMARK   93  A    between atoms: _219  and  _220
REMARK   94  A    between atoms: _220  and  _221
REMARK   95  A    between atoms: _221  and  _222
REMARK   96  A    between atoms: _222  and  _223
REMARK   97  A    between atoms: _227  and  _229
REMARK   98  A    between atoms: _229  and  _230
REMARK   99  A    between atoms: _229  and  _232
REMARK  100  A    between atoms: _232  and  _233
REMARK  101  A    between atoms: _233  and  _234
REMARK  102  A    between atoms: _234  and  _235
REMARK  103  A    between atoms: _244  and  _246
REMARK  104  A    between atoms: _246  and  _247
REMARK  105  A    between atoms: _246  and  _249
REMARK  106  A    between atoms: _249  and  _250
REMARK  107  A    between atoms: _253  and  _255
REMARK  108  A    between atoms: _255  and  _256
REMARK  109  A    between atoms: _255  and  _258
REMARK  110  A    between atoms: _258  and  _259
REMARK  111  A    between atoms: _264  and  _266
REMARK  112  A    between atoms: _266  and  _267
REMARK  113  A    between atoms: _266  and  _269
REMARK  114  A    between atoms: _269  and  _270
REMARK  115  A    between atoms: _270  and  _271
REMARK  116  A    between atoms: _271  and  _272
REMARK  117  A    between atoms: _272  and  _273
REMARK  118  A    between atoms: _277  and  _279
REMARK  119  A    between atoms: _279  and  _280
REMARK  120  A    between atoms: _279  and  _282
REMARK  121  A    between atoms: _282  and  _283
REMARK  122  A    between atoms: _288  and  _290
REMARK  123  A    between atoms: _290  and  _291
REMARK  124  A    between atoms: _290  and  _293
REMARK  125  A    between atoms: _293  and  _294
REMARK  126  A    between atoms: _294  and  _295
REMARK  127  A    between atoms: _295  and  _296
REMARK  128  A    between atoms: _305  and  _307
REMARK  129  A    between atoms: _307  and  _308
REMARK  130  A    between atoms: _307  and  _310
REMARK  131  A    between atoms: _310  and  _311
REMARK  132  A    between atoms: _316  and  _318
REMARK  133  A    between atoms: _318  and  _319
REMARK  134  A    between atoms: _318  and  _321
REMARK  135  A    between atoms: _321  and  _322
REMARK  136  A    between atoms: _322  and  _323
REMARK  137  A    between atoms: _323  and  _324
REMARK  138  A    between atoms: _324  and  _325
REMARK                            x       y       z     vdW  Elec       q    Type
REMARK                         _______ _______ _______ _____ _____    ______ ____
ROOT
ATOM      1  O   HOH     1      20.009  36.590   5.986  0.00  0.00    +0.000 OA
ENDROOT
TORSDOF 0
REMARK  Name = ../refined-set-2016/1h0a/1h0a_pocket.pdb
REMARK  138 active torsions:
REMARK  status: ('A' for Active; 'I' for Inactive)
REMARK    1  A    between atoms: _1  and  _5
REMARK    2  A    between atoms: _5  and  _6
REMARK    3  A    between atoms: _5  and  _8
REMARK    4  A    between atoms: _9  and  _10
REMARK    5  A    between atoms: _12  and  _14
REMARK    6  A    between atoms: _14  and  _15
REMARK    7  A    between atoms: _14  and  _17
REMARK    8  A    between atoms: _17  and  _18
REMARK    9  A    between atoms: _21  and  _23
REMARK   10  A    between atoms: _23  and  _24
REMARK   11  A    between atoms: _23  and  _26
REMARK   12  A    between atoms: _26  and  _27
REMARK   13  A    between atoms: _29  and  _31
REMARK   14  A    between atoms: _31  and  _32
REMARK   15  A    between atoms: _31  and  _34
REMARK   16  A    between atoms: _34  and  _35
REMARK   17  A    between atoms: _37  and  _39
REMARK   18  A    between atoms: _39  and  _40
REMARK   19  A    between atoms: _39  and  _42
REMARK   20  A    between atoms: _42  and  _43
REMARK   21  A    between atoms: _46  and  _48
REMARK   22  A    between atoms: _48  and  _49
REMARK   23  A    between atoms: _48  and  _51
REMARK   24  A    between atoms: _51  and  _52
REMARK   25  A    between atoms: _52  and  _53
REMARK   26  A    between atoms: _53  and  _54
REMARK   27  A    between atoms: _63  and  _65
REMARK   28  A    between atoms: _65  and  _66
REMARK   29  A    between atoms: _65  and  _68
REMARK   30  A    between atoms: _68  and  _69
REMARK   31  A    between atoms: _69  and  _70
REMARK   32  A    between atoms: _70  and  _71
REMARK   33  A    between atoms: _80  and  _82
REMARK   34  A    between atoms: _82  and  _83
REMARK   35  A    between atoms: _82  and  _85
REMARK   36  A    between atoms: _85  and  _86
REMARK   37  A    between atoms: _86  and  _87
REMARK   38  A    between atoms: _92  and  _94
REMARK   39  A    between atoms: _94  and  _95
REMARK   40  A    between atoms: _94  and  _97
REMARK   41  A    between atoms: _97  and  _98
REMARK   42  A    between atoms: _98  and  _99
REMARK   43  A    between atoms: _99  and  _100
REMARK   44  A    between atoms: _100  and  _101
REMARK   45  A    between atoms: _105  and  _107
REMARK   46  A    between atoms: _107  and  _108
REMARK   47  A    between atoms: _107  and  _110
REMARK   48  A    between atoms: _110  and  _111
REMARK   49  A    between atoms: _116  and  _118
REMARK   50  A    between atoms: _118  and  _119
REMARK   51  A    between atoms: _118  and  _121
REMARK   52  A    between atoms: _121  and  _122
REMARK   53  A    between atoms: _127  and  _129
REMARK   54  A    between atoms: _129  and  _130
REMARK   55  A    between atoms: _129  and  _132
REMARK   56  A    between atoms: _132  and  _133
REMARK   57  A    between atoms: _138  and  _139
REMARK   58  A    between atoms: _141  and  _143
REMARK   59  A    between atoms: _143  and  _144
REMARK   60  A    between atoms: _143  and  _146
REMARK   61  A    between atoms: _146  and  _147
REMARK   62  A    between atoms: _147  and  _148
REMARK   63  A    between atoms: _148  and  _149
REMARK   64  A    between atoms: _158  and  _160
REMARK   65  A    between atoms: _160  and  _161
REMARK   66  A    between atoms: _160  and  _163
REMARK   67  A    between atoms: _163  and  _164
REMARK   68  A    between atoms: _164  and  _165
REMARK   69  A    between atoms: _168  and  _170
REMARK   70  A    between atoms: _170  and  _171
REMARK   71  A    between atoms: _170  and  _173
REMARK   72  A    between atoms: _173  and  _174
REMARK   73  A    between atoms: _177  and  _179
REMARK   74  A    between atoms: _179  and  _180
REMARK   75  A    between atoms: _179  and  _182
REMARK   76  A    between atoms: _182  and  _183
REMARK   77  A    between atoms: _185  and  _187
REMARK   78  A    between atoms: _187  and  _188
REMARK   79  A    between atoms: _187  and  _190
REMARK   80  A    between atoms: _190  and  _191
REMARK   81  A    between atoms: _196  and  _198
REMARK   82  A    between atoms: _198  and  _199
REMARK   83  A    between atoms: _198  and  _201
REMARK   84  A    between atoms: _201  and  _202
REMARK   85  A    between atoms: _205  and  _207
REMARK   86  A    between atoms: _207  and  _208
REMARK   87  A    between atoms: _207  and  _210
REMARK   88  A    between atoms: _210  and  _211
REMARK   89  A    between atoms: _211  and  _212
REMARK   90  A    between atoms: _214  and  _216
REMARK   91  A    between atoms: _216  and  _217
REMARK   92  A    between atoms: _216  and  _219
REMARK   93  A    between atoms: _219  and  _220
REMARK   94  A    between atoms: _220  and  _221
REMARK   95  A    between atoms: _221  and  _222
REMARK   96  A    between atoms: _222  and  _223
REMARK   97  A    between atoms: _227  and  _229
REMARK   98  A    between atoms: _229  and  _230
REMARK   99  A    between atoms: _229  and  _232
REMARK  100  A    between atoms: _232  and  _233
REMARK  101  A    between atoms: _233  and  _234
REMARK  102  A    between atoms: _234  and  _235
REMARK  103  A    between atoms: _244  and  _246
REMARK  104  A    between atoms: _246  and  _247
REMARK  105  A    between atoms: _246  and  _249
REMARK  106  A    between atoms: _249  and  _250
REMARK  107  A    between atoms: _253  and  _255
REMARK  108  A    between atoms: _255  and  _256
REMARK  109  A    between atoms: _255  and  _258
REMARK  110  A    between atoms: _258  and  _259
REMARK  111  A    between atoms: _264  and  _266
REMARK  112  A    between atoms: _266  and  _267
REMARK  113  A    between atoms: _266  and  _269
REMARK  114  A    between atoms: _269  and  _270
REMARK  115  A    between atoms: _270  and  _271
REMARK  116  A    between atoms: _271  and  _272
REMARK  117  A    between atoms: _272  and  _273
REMARK  118  A    between atoms: _277  and  _279
REMARK  119  A    between atoms: _279  and  _280
REMARK  120  A    between atoms: _279  and  _282
REMARK  121  A    between atoms: _282  and  _283
REMARK  122  A    between atoms: _288  and  _290
REMARK  123  A    between atoms: _290  and  _291
REMARK  124  A    between atoms: _290  and  _293
REMARK  125  A    between atoms: _293  and  _294
REMARK  126  A    between atoms: _294  and  _295
REMARK  127  A    between atoms: _295  and  _296
REMARK  128  A    between atoms: _305  and  _307
REMARK  129  A    between atoms: _307  and  _308
REMARK  130  A    between atoms: _307  and  _310
REMARK  131  A    between atoms: _310  and  _311
REMARK  132  A    between atoms: _316  and  _318
REMARK  133  A    between atoms: _318  and  _319
REMARK  134  A    between atoms: _318  and  _321
REMARK  135  A    between atoms: _321  and  _322
REMARK  136  A    between atoms: _322  and  _323
REMARK  137  A    between atoms: _323  and  _324
REMARK  138  A    between atoms: _324  and  _325
REMARK                            x       y       z     vdW  Elec       q    Type
REMARK                         _______ _______ _______ _____ _____    ______ ____
ROOT
ATOM      1  O   HOH     1      26.790  36.585   8.513  0.00  0.00    +0.000 OA
ENDROOT
TORSDOF 0
REMARK  Name = ../refined-set-2016/1h0a/1h0a_pocket.pdb
REMARK  138 active torsions:
REMARK  status: ('A' for Active; 'I' for Inactive)
REMARK    1  A    between atoms: _1  and  _5
REMARK    2  A    between atoms: _5  and  _6
REMARK    3  A    between atoms: _5  and  _8
REMARK    4  A    between atoms: _9  and  _10
REMARK    5  A    between atoms: _12  and  _14
REMARK    6  A    between atoms: _14  and  _15
REMARK    7  A    between atoms: _14  and  _17
REMARK    8  A    between atoms: _17  and  _18
REMARK    9  A    between atoms: _21  and  _23
REMARK   10  A    between atoms: _23  and  _24
REMARK   11  A    between atoms: _23  and  _26
REMARK   12  A    between atoms: _26  and  _27
REMARK   13  A    between atoms: _29  and  _31
REMARK   14  A    between atoms: _31  and  _32
REMARK   15  A    between atoms: _31  and  _34
REMARK   16  A    between atoms: _34  and  _35
REMARK   17  A    between atoms: _37  and  _39
REMARK   18  A    between atoms: _39  and  _40
REMARK   19  A    between atoms: _39  and  _42
REMARK   20  A    between atoms: _42  and  _43
REMARK   21  A    between atoms: _46  and  _48
REMARK   22  A    between atoms: _48  and  _49
REMARK   23  A    between atoms: _48  and  _51
REMARK   24  A    between atoms: _51  and  _52
REMARK   25  A    between atoms: _52  and  _53
REMARK   26  A    between atoms: _53  and  _54
REMARK   27  A    between atoms: _63  and  _65
REMARK   28  A    between atoms: _65  and  _66
REMARK   29  A    between atoms: _65  and  _68
REMARK   30  A    between atoms: _68  and  _69
REMARK   31  A    between atoms: _69  and  _70
REMARK   32  A    between atoms: _70  and  _71
REMARK   33  A    between atoms: _80  and  _82
REMARK   34  A    between atoms: _82  and  _83
REMARK   35  A    between atoms: _82  and  _85
REMARK   36  A    between atoms: _85  and  _86
REMARK   37  A    between atoms: _86  and  _87
REMARK   38  A    between atoms: _92  and  _94
REMARK   39  A    between atoms: _94  and  _95
REMARK   40  A    between atoms: _94  and  _97
REMARK   41  A    between atoms: _97  and  _98
REMARK   42  A    between atoms: _98  and  _99
REMARK   43  A    between atoms: _99  and  _100
REMARK   44  A    between atoms: _100  and  _101
REMARK   45  A    between atoms: _105  and  _107
REMARK   46  A    between atoms: _107  and  _108
REMARK   47  A    between atoms: _107  and  _110
REMARK   48  A    between atoms: _110  and  _111
REMARK   49  A    between atoms: _116  and  _118
REMARK   50  A    between atoms: _118  and  _119
REMARK   51  A    between atoms: _118  and  _121
REMARK   52  A    between atoms: _121  and  _122
REMARK   53  A    between atoms: _127  and  _129
REMARK   54  A    between atoms: _129  and  _130
REMARK   55  A    between atoms: _129  and  _132
REMARK   56  A    between atoms: _132  and  _133
REMARK   57  A    between atoms: _138  and  _139
REMARK   58  A    between atoms: _141  and  _143
REMARK   59  A    between atoms: _143  and  _144
REMARK   60  A    between atoms: _143  and  _146
REMARK   61  A    between atoms: _146  and  _147
REMARK   62  A    between atoms: _147  and  _148
REMARK   63  A    between atoms: _148  and  _149
REMARK   64  A    between atoms: _158  and  _160
REMARK   65  A    between atoms: _160  and  _161
REMARK   66  A    between atoms: _160  and  _163
REMARK   67  A    between atoms: _163  and  _164
REMARK   68  A    between atoms: _164  and  _165
REMARK   69  A    between atoms: _168  and  _170
REMARK   70  A    between atoms: _170  and  _171
REMARK   71  A    between atoms: _170  and  _173
REMARK   72  A    between atoms: _173  and  _174
REMARK   73  A    between atoms: _177  and  _179
REMARK   74  A    between atoms: _179  and  _180
REMARK   75  A    between atoms: _179  and  _182
REMARK   76  A    between atoms: _182  and  _183
REMARK   77  A    between atoms: _185  and  _187
REMARK   78  A    between atoms: _187  and  _188
REMARK   79  A    between atoms: _187  and  _190
REMARK   80  A    between atoms: _190  and  _191
REMARK   81  A    between atoms: _196  and  _198
REMARK   82  A    between atoms: _198  and  _199
REMARK   83  A    between atoms: _198  and  _201
REMARK   84  A    between atoms: _201  and  _202
REMARK   85  A    between atoms: _205  and  _207
REMARK   86  A    between atoms: _207  and  _208
REMARK   87  A    between atoms: _207  and  _210
REMARK   88  A    between atoms: _210  and  _211
REMARK   89  A    between atoms: _211  and  _212
REMARK   90  A    between atoms: _214  and  _216
REMARK   91  A    between atoms: _216  and  _217
REMARK   92  A    between atoms: _216  and  _219
REMARK   93  A    between atoms: _219  and  _220
REMARK   94  A    between atoms: _220  and  _221
REMARK   95  A    between atoms: _221  and  _222
REMARK   96  A    between atoms: _222  and  _223
REMARK   97  A    between atoms: _227  and  _229
REMARK   98  A    between atoms: _229  and  _230
REMARK   99  A    between atoms: _229  and  _232
REMARK  100  A    between atoms: _232  and  _233
REMARK  101  A    between atoms: _233  and  _234
REMARK  102  A    between atoms: _234  and  _235
REMARK  103  A    between atoms: _244  and  _246
REMARK  104  A    between atoms: _246  and  _247
REMARK  105  A    between atoms: _246  and  _249
REMARK  106  A    between atoms: _249  and  _250
REMARK  107  A    between atoms: _253  and  _255
REMARK  108  A    between atoms: _255  and  _256
REMARK  109  A    between atoms: _255  and  _258
REMARK  110  A    between atoms: _258  and  _259
REMARK  111  A    between atoms: _264  and  _266
REMARK  112  A    between atoms: _266  and  _267
REMARK  113  A    between atoms: _266  and  _269
REMARK  114  A    between atoms: _269  and  _270
REMARK  115  A    between atoms: _270  and  _271
REMARK  116  A    between atoms: _271  and  _272
REMARK  117  A    between atoms: _272  and  _273
REMARK  118  A    between atoms: _277  and  _279
REMARK  119  A    between atoms: _279  and  _280
REMARK  120  A    between atoms: _279  and  _282
REMARK  121  A    between atoms: _282  and  _283
REMARK  122  A    between atoms: _288  and  _290
REMARK  123  A    between atoms: _290  and  _291
REMARK  124  A    between atoms: _290  and  _293
REMARK  125  A    between atoms: _293  and  _294
REMARK  126  A    between atoms: _294  and  _295
REMARK  127  A    between atoms: _295  and  _296
REMARK  128  A    between atoms: _305  and  _307
REMARK  129  A    between atoms: _307  and  _308
REMARK  130  A    between atoms: _307  and  _310
REMARK  131  A    between atoms: _310  and  _311
REMARK  132  A    between atoms: _316  and  _318
REMARK  133  A    between atoms: _318  and  _319
REMARK  134  A    between atoms: _318  and  _321
REMARK  135  A    between atoms: _321  and  _322
REMARK  136  A    between atoms: _322  and  _323
REMARK  137  A    between atoms: _323  and  _324
REMARK  138  A    between atoms: _324  and  _325
REMARK                            x       y       z     vdW  Elec       q    Type
REMARK                         _______ _______ _______ _____ _____    ______ ____
ROOT
ATOM      1  O   HOH     1      20.045  35.285   9.597  0.00  0.00    +0.000 OA
ENDROOT
TORSDOF 0
REMARK  Name = ../refined-set-2016/1h0a/1h0a_pocket.pdb
REMARK  138 active torsions:
REMARK  status: ('A' for Active; 'I' for Inactive)
REMARK    1  A    between atoms: _1  and  _5
REMARK    2  A    between atoms: _5  and  _6
REMARK    3  A    between atoms: _5  and  _8
REMARK    4  A    between atoms: _9  and  _10
REMARK    5  A    between atoms: _12  and  _14
REMARK    6  A    between atoms: _14  and  _15
REMARK    7  A    between atoms: _14  and  _17
REMARK    8  A    between atoms: _17  and  _18
REMARK    9  A    between atoms: _21  and  _23
REMARK   10  A    between atoms: _23  and  _24
REMARK   11  A    between atoms: _23  and  _26
REMARK   12  A    between atoms: _26  and  _27
REMARK   13  A    between atoms: _29  and  _31
REMARK   14  A    between atoms: _31  and  _32
REMARK   15  A    between atoms: _31  and  _34
REMARK   16  A    between atoms: _34  and  _35
REMARK   17  A    between atoms: _37  and  _39
REMARK   18  A    between atoms: _39  and  _40
REMARK   19  A    between atoms: _39  and  _42
REMARK   20  A    between atoms: _42  and  _43
REMARK   21  A    between atoms: _46  and  _48
REMARK   22  A    between atoms: _48  and  _49
REMARK   23  A    between atoms: _48  and  _51
REMARK   24  A    between atoms: _51  and  _52
REMARK   25  A    between atoms: _52  and  _53
REMARK   26  A    between atoms: _53  and  _54
REMARK   27  A    between atoms: _63  and  _65
REMARK   28  A    between atoms: _65  and  _66
REMARK   29  A    between atoms: _65  and  _68
REMARK   30  A    between atoms: _68  and  _69
REMARK   31  A    between atoms: _69  and  _70
REMARK   32  A    between atoms: _70  and  _71
REMARK   33  A    between atoms: _80  and  _82
REMARK   34  A    between atoms: _82  and  _83
REMARK   35  A    between atoms: _82  and  _85
REMARK   36  A    between atoms: _85  and  _86
REMARK   37  A    between atoms: _86  and  _87
REMARK   38  A    between atoms: _92  and  _94
REMARK   39  A    between atoms: _94  and  _95
REMARK   40  A    between atoms: _94  and  _97
REMARK   41  A    between atoms: _97  and  _98
REMARK   42  A    between atoms: _98  and  _99
REMARK   43  A    between atoms: _99  and  _100
REMARK   44  A    between atoms: _100  and  _101
REMARK   45  A    between atoms: _105  and  _107
REMARK   46  A    between atoms: _107  and  _108
REMARK   47  A    between atoms: _107  and  _110
REMARK   48  A    between atoms: _110  and  _111
REMARK   49  A    between atoms: _116  and  _118
REMARK   50  A    between atoms: _118  and  _119
REMARK   51  A    between atoms: _118  and  _121
REMARK   52  A    between atoms: _121  and  _122
REMARK   53  A    between atoms: _127  and  _129
REMARK   54  A    between atoms: _129  and  _130
REMARK   55  A    between atoms: _129  and  _132
REMARK   56  A    between atoms: _132  and  _133
REMARK   57  A    between atoms: _138  and  _139
REMARK   58  A    between atoms: _141  and  _143
REMARK   59  A    between atoms: _143  and  _144
REMARK   60  A    between atoms: _143  and  _146
REMARK   61  A    between atoms: _146  and  _147
REMARK   62  A    between atoms: _147  and  _148
REMARK   63  A    between atoms: _148  and  _149
REMARK   64  A    between atoms: _158  and  _160
REMARK   65  A    between atoms: _160  and  _161
REMARK   66  A    between atoms: _160  and  _163
REMARK   67  A    between atoms: _163  and  _164
REMARK   68  A    between atoms: _164  and  _165
REMARK   69  A    between atoms: _168  and  _170
REMARK   70  A    between atoms: _170  and  _171
REMARK   71  A    between atoms: _170  and  _173
REMARK   72  A    between atoms: _173  and  _174
REMARK   73  A    between atoms: _177  and  _179
REMARK   74  A    between atoms: _179  and  _180
REMARK   75  A    between atoms: _179  and  _182
REMARK   76  A    between atoms: _182  and  _183
REMARK   77  A    between atoms: _185  and  _187
REMARK   78  A    between atoms: _187  and  _188
REMARK   79  A    between atoms: _187  and  _190
REMARK   80  A    between atoms: _190  and  _191
REMARK   81  A    between atoms: _196  and  _198
REMARK   82  A    between atoms: _198  and  _199
REMARK   83  A    between atoms: _198  and  _201
REMARK   84  A    between atoms: _201  and  _202
REMARK   85  A    between atoms: _205  and  _207
REMARK   86  A    between atoms: _207  and  _208
REMARK   87  A    between atoms: _207  and  _210
REMARK   88  A    between atoms: _210  and  _211
REMARK   89  A    between atoms: _211  and  _212
REMARK   90  A    between atoms: _214  and  _216
REMARK   91  A    between atoms: _216  and  _217
REMARK   92  A    between atoms: _216  and  _219
REMARK   93  A    between atoms: _219  and  _220
REMARK   94  A    between atoms: _220  and  _221
REMARK   95  A    between atoms: _221  and  _222
REMARK   96  A    between atoms: _222  and  _223
REMARK   97  A    between atoms: _227  and  _229
REMARK   98  A    between atoms: _229  and  _230
REMARK   99  A    between atoms: _229  and  _232
REMARK  100  A    between atoms: _232  and  _233
REMARK  101  A    between atoms: _233  and  _234
REMARK  102  A    between atoms: _234  and  _235
REMARK  103  A    between atoms: _244  and  _246
REMARK  104  A    between atoms: _246  and  _247
REMARK  105  A    between atoms: _246  and  _249
REMARK  106  A    between atoms: _249  and  _250
REMARK  107  A    between atoms: _253  and  _255
REMARK  108  A    between atoms: _255  and  _256
REMARK  109  A    between atoms: _255  and  _258
REMARK  110  A    between atoms: _258  and  _259
REMARK  111  A    between atoms: _264  and  _266
REMARK  112  A    between atoms: _266  and  _267
REMARK  113  A    between atoms: _266  and  _269
REMARK  114  A    between atoms: _269  and  _270
REMARK  115  A    between atoms: _270  and  _271
REMARK  116  A    between atoms: _271  and  _272
REMARK  117  A    between atoms: _272  and  _273
REMARK  118  A    between atoms: _277  and  _279
REMARK  119  A    between atoms: _279  and  _280
REMARK  120  A    between atoms: _279  and  _282
REMARK  121  A    between atoms: _282  and  _283
REMARK  122  A    between atoms: _288  and  _290
REMARK  123  A    between atoms: _290  and  _291
REMARK  124  A    between atoms: _290  and  _293
REMARK  125  A    between atoms: _293  and  _294
REMARK  126  A    between atoms: _294  and  _295
REMARK  127  A    between atoms: _295  and  _296
REMARK  128  A    between atoms: _305  and  _307
REMARK  129  A    between atoms: _307  and  _308
REMARK  130  A    between atoms: _307  and  _310
REMARK  131  A    between atoms: _310  and  _311
REMARK  132  A    between atoms: _316  and  _318
REMARK  133  A    between atoms: _318  and  _319
REMARK  134  A    between atoms: _318  and  _321
REMARK  135  A    between atoms: _321  and  _322
REMARK  136  A    between atoms: _322  and  _323
REMARK  137  A    between atoms: _323  and  _324
REMARK  138  A    between atoms: _324  and  _325
REMARK                            x       y       z     vdW  Elec       q    Type
REMARK                         _______ _______ _______ _____ _____    ______ ____
ROOT
ATOM      1  O   HOH     1      24.635  30.174  -0.636  0.00  0.00    +0.000 OA
ENDROOT
TORSDOF 0
REMARK  Name = ../refined-set-2016/1h0a/1h0a_pocket.pdb
REMARK  138 active torsions:
REMARK  status: ('A' for Active; 'I' for Inactive)
REMARK    1  A    between atoms: _1  and  _5
REMARK    2  A    between atoms: _5  and  _6
REMARK    3  A    between atoms: _5  and  _8
REMARK    4  A    between atoms: _9  and  _10
REMARK    5  A    between atoms: _12  and  _14
REMARK    6  A    between atoms: _14  and  _15
REMARK    7  A    between atoms: _14  and  _17
REMARK    8  A    between atoms: _17  and  _18
REMARK    9  A    between atoms: _21  and  _23
REMARK   10  A    between atoms: _23  and  _24
REMARK   11  A    between atoms: _23  and  _26
REMARK   12  A    between atoms: _26  and  _27
REMARK   13  A    between atoms: _29  and  _31
REMARK   14  A    between atoms: _31  and  _32
REMARK   15  A    between atoms: _31  and  _34
REMARK   16  A    between atoms: _34  and  _35
REMARK   17  A    between atoms: _37  and  _39
REMARK   18  A    between atoms: _39  and  _40
REMARK   19  A    between atoms: _39  and  _42
REMARK   20  A    between atoms: _42  and  _43
REMARK   21  A    between atoms: _46  and  _48
REMARK   22  A    between atoms: _48  and  _49
REMARK   23  A    between atoms: _48  and  _51
REMARK   24  A    between atoms: _51  and  _52
REMARK   25  A    between atoms: _52  and  _53
REMARK   26  A    between atoms: _53  and  _54
REMARK   27  A    between atoms: _63  and  _65
REMARK   28  A    between atoms: _65  and  _66
REMARK   29  A    between atoms: _65  and  _68
REMARK   30  A    between atoms: _68  and  _69
REMARK   31  A    between atoms: _69  and  _70
REMARK   32  A    between atoms: _70  and  _71
REMARK   33  A    between atoms: _80  and  _82
REMARK   34  A    between atoms: _82  and  _83
REMARK   35  A    between atoms: _82  and  _85
REMARK   36  A    between atoms: _85  and  _86
REMARK   37  A    between atoms: _86  and  _87
REMARK   38  A    between atoms: _92  and  _94
REMARK   39  A    between atoms: _94  and  _95
REMARK   40  A    between atoms: _94  and  _97
REMARK   41  A    between atoms: _97  and  _98
REMARK   42  A    between atoms: _98  and  _99
REMARK   43  A    between atoms: _99  and  _100
REMARK   44  A    between atoms: _100  and  _101
REMARK   45  A    between atoms: _105  and  _107
REMARK   46  A    between atoms: _107  and  _108
REMARK   47  A    between atoms: _107  and  _110
REMARK   48  A    between atoms: _110  and  _111
REMARK   49  A    between atoms: _116  and  _118
REMARK   50  A    between atoms: _118  and  _119
REMARK   51  A    between atoms: _118  and  _121
REMARK   52  A    between atoms: _121  and  _122
REMARK   53  A    between atoms: _127  and  _129
REMARK   54  A    between atoms: _129  and  _130
REMARK   55  A    between atoms: _129  and  _132
REMARK   56  A    between atoms: _132  and  _133
REMARK   57  A    between atoms: _138  and  _139
REMARK   58  A    between atoms: _141  and  _143
REMARK   59  A    between atoms: _143  and  _144
REMARK   60  A    between atoms: _143  and  _146
REMARK   61  A    between atoms: _146  and  _147
REMARK   62  A    between atoms: _147  and  _148
REMARK   63  A    between atoms: _148  and  _149
REMARK   64  A    between atoms: _158  and  _160
REMARK   65  A    between atoms: _160  and  _161
REMARK   66  A    between atoms: _160  and  _163
REMARK   67  A    between atoms: _163  and  _164
REMARK   68  A    between atoms: _164  and  _165
REMARK   69  A    between atoms: _168  and  _170
REMARK   70  A    between atoms: _170  and  _171
REMARK   71  A    between atoms: _170  and  _173
REMARK   72  A    between atoms: _173  and  _174
REMARK   73  A    between atoms: _177  and  _179
REMARK   74  A    between atoms: _179  and  _180
REMARK   75  A    between atoms: _179  and  _182
REMARK   76  A    between atoms: _182  and  _183
REMARK   77  A    between atoms: _185  and  _187
REMARK   78  A    between atoms: _187  and  _188
REMARK   79  A    between atoms: _187  and  _190
REMARK   80  A    between atoms: _190  and  _191
REMARK   81  A    between atoms: _196  and  _198
REMARK   82  A    between atoms: _198  and  _199
REMARK   83  A    between atoms: _198  and  _201
REMARK   84  A    between atoms: _201  and  _202
REMARK   85  A    between atoms: _205  and  _207
REMARK   86  A    between atoms: _207  and  _208
REMARK   87  A    between atoms: _207  and  _210
REMARK   88  A    between atoms: _210  and  _211
REMARK   89  A    between atoms: _211  and  _212
REMARK   90  A    between atoms: _214  and  _216
REMARK   91  A    between atoms: _216  and  _217
REMARK   92  A    between atoms: _216  and  _219
REMARK   93  A    between atoms: _219  and  _220
REMARK   94  A    between atoms: _220  and  _221
REMARK   95  A    between atoms: _221  and  _222
REMARK   96  A    between atoms: _222  and  _223
REMARK   97  A    between atoms: _227  and  _229
REMARK   98  A    between atoms: _229  and  _230
REMARK   99  A    between atoms: _229  and  _232
REMARK  100  A    between atoms: _232  and  _233
REMARK  101  A    between atoms: _233  and  _234
REMARK  102  A    between atoms: _234  and  _235
REMARK  103  A    between atoms: _244  and  _246
REMARK  104  A    between atoms: _246  and  _247
REMARK  105  A    between atoms: _246  and  _249
REMARK  106  A    between atoms: _249  and  _250
REMARK  107  A    between atoms: _253  and  _255
REMARK  108  A    between atoms: _255  and  _256
REMARK  109  A    between atoms: _255  and  _258
REMARK  110  A    between atoms: _258  and  _259
REMARK  111  A    between atoms: _264  and  _266
REMARK  112  A    between atoms: _266  and  _267
REMARK  113  A    between atoms: _266  and  _269
REMARK  114  A    between atoms: _269  and  _270
REMARK  115  A    between atoms: _270  and  _271
REMARK  116  A    between atoms: _271  and  _272
REMARK  117  A    between atoms: _272  and  _273
REMARK  118  A    between atoms: _277  and  _279
REMARK  119  A    between atoms: _279  and  _280
REMARK  120  A    between atoms: _279  and  _282
REMARK  121  A    between atoms: _282  and  _283
REMARK  122  A    between atoms: _288  and  _290
REMARK  123  A    between atoms: _290  and  _291
REMARK  124  A    between atoms: _290  and  _293
REMARK  125  A    between atoms: _293  and  _294
REMARK  126  A    between atoms: _294  and  _295
REMARK  127  A    between atoms: _295  and  _296
REMARK  128  A    between atoms: _305  and  _307
REMARK  129  A    between atoms: _307  and  _308
REMARK  130  A    between atoms: _307  and  _310
REMARK  131  A    between atoms: _310  and  _311
REMARK  132  A    between atoms: _316  and  _318
REMARK  133  A    between atoms: _318  and  _319
REMARK  134  A    between atoms: _318  and  _321
REMARK  135  A    between atoms: _321  and  _322
REMARK  136  A    between atoms: _322  and  _323
REMARK  137  A    between atoms: _323  and  _324
REMARK  138  A    between atoms: _324  and  _325
REMARK                            x       y       z     vdW  Elec       q    Type
REMARK                         _______ _______ _______ _____ _____    ______ ____
ROOT
ATOM      1  O   HOH     1      21.507  37.665   4.011  0.00  0.00    +0.000 OA
ENDROOT
TORSDOF 0
REMARK  Name = ../refined-set-2016/1h0a/1h0a_pocket.pdb
REMARK  138 active torsions:
REMARK  status: ('A' for Active; 'I' for Inactive)
REMARK    1  A    between atoms: _1  and  _5
REMARK    2  A    between atoms: _5  and  _6
REMARK    3  A    between atoms: _5  and  _8
REMARK    4  A    between atoms: _9  and  _10
REMARK    5  A    between atoms: _12  and  _14
REMARK    6  A    between atoms: _14  and  _15
REMARK    7  A    between atoms: _14  and  _17
REMARK    8  A    between atoms: _17  and  _18
REMARK    9  A    between atoms: _21  and  _23
REMARK   10  A    between atoms: _23  and  _24
REMARK   11  A    between atoms: _23  and  _26
REMARK   12  A    between atoms: _26  and  _27
REMARK   13  A    between atoms: _29  and  _31
REMARK   14  A    between atoms: _31  and  _32
REMARK   15  A    between atoms: _31  and  _34
REMARK   16  A    between atoms: _34  and  _35
REMARK   17  A    between atoms: _37  and  _39
REMARK   18  A    between atoms: _39  and  _40
REMARK   19  A    between atoms: _39  and  _42
REMARK   20  A    between atoms: _42  and  _43
REMARK   21  A    between atoms: _46  and  _48
REMARK   22  A    between atoms: _48  and  _49
REMARK   23  A    between atoms: _48  and  _51
REMARK   24  A    between atoms: _51  and  _52
REMARK   25  A    between atoms: _52  and  _53
REMARK   26  A    between atoms: _53  and  _54
REMARK   27  A    between atoms: _63  and  _65
REMARK   28  A    between atoms: _65  and  _66
REMARK   29  A    between atoms: _65  and  _68
REMARK   30  A    between atoms: _68  and  _69
REMARK   31  A    between atoms: _69  and  _70
REMARK   32  A    between atoms: _70  and  _71
REMARK   33  A    between atoms: _80  and  _82
REMARK   34  A    between atoms: _82  and  _83
REMARK   35  A    between atoms: _82  and  _85
REMARK   36  A    between atoms: _85  and  _86
REMARK   37  A    between atoms: _86  and  _87
REMARK   38  A    between atoms: _92  and  _94
REMARK   39  A    between atoms: _94  and  _95
REMARK   40  A    between atoms: _94  and  _97
REMARK   41  A    between atoms: _97  and  _98
REMARK   42  A    between atoms: _98  and  _99
REMARK   43  A    between atoms: _99  and  _100
REMARK   44  A    between atoms: _100  and  _101
REMARK   45  A    between atoms: _105  and  _107
REMARK   46  A    between atoms: _107  and  _108
REMARK   47  A    between atoms: _107  and  _110
REMARK   48  A    between atoms: _110  and  _111
REMARK   49  A    between atoms: _116  and  _118
REMARK   50  A    between atoms: _118  and  _119
REMARK   51  A    between atoms: _118  and  _121
REMARK   52  A    between atoms: _121  and  _122
REMARK   53  A    between atoms: _127  and  _129
REMARK   54  A    between atoms: _129  and  _130
REMARK   55  A    between atoms: _129  and  _132
REMARK   56  A    between atoms: _132  and  _133
REMARK   57  A    between atoms: _138  and  _139
REMARK   58  A    between atoms: _141  and  _143
REMARK   59  A    between atoms: _143  and  _144
REMARK   60  A    between atoms: _143  and  _146
REMARK   61  A    between atoms: _146  and  _147
REMARK   62  A    between atoms: _147  and  _148
REMARK   63  A    between atoms: _148  and  _149
REMARK   64  A    between atoms: _158  and  _160
REMARK   65  A    between atoms: _160  and  _161
REMARK   66  A    between atoms: _160  and  _163
REMARK   67  A    between atoms: _163  and  _164
REMARK   68  A    between atoms: _164  and  _165
REMARK   69  A    between atoms: _168  and  _170
REMARK   70  A    between atoms: _170  and  _171
REMARK   71  A    between atoms: _170  and  _173
REMARK   72  A    between atoms: _173  and  _174
REMARK   73  A    between atoms: _177  and  _179
REMARK   74  A    between atoms: _179  and  _180
REMARK   75  A    between atoms: _179  and  _182
REMARK   76  A    between atoms: _182  and  _183
REMARK   77  A    between atoms: _185  and  _187
REMARK   78  A    between atoms: _187  and  _188
REMARK   79  A    between atoms: _187  and  _190
REMARK   80  A    between atoms: _190  and  _191
REMARK   81  A    between atoms: _196  and  _198
REMARK   82  A    between atoms: _198  and  _199
REMARK   83  A    between atoms: _198  and  _201
REMARK   84  A    between atoms: _201  and  _202
REMARK   85  A    between atoms: _205  and  _207
REMARK   86  A    between atoms: _207  and  _208
REMARK   87  A    between atoms: _207  and  _210
REMARK   88  A    between atoms: _210  and  _211
REMARK   89  A    between atoms: _211  and  _212
REMARK   90  A    between atoms: _214  and  _216
REMARK   91  A    between atoms: _216  and  _217
REMARK   92  A    between atoms: _216  and  _219
REMARK   93  A    between atoms: _219  and  _220
REMARK   94  A    between atoms: _220  and  _221
REMARK   95  A    between atoms: _221  and  _222
REMARK   96  A    between atoms: _222  and  _223
REMARK   97  A    between atoms: _227  and  _229
REMARK   98  A    between atoms: _229  and  _230
REMARK   99  A    between atoms: _229  and  _232
REMARK  100  A    between atoms: _232  and  _233
REMARK  101  A    between atoms: _233  and  _234
REMARK  102  A    between atoms: _234  and  _235
REMARK  103  A    between atoms: _244  and  _246
REMARK  104  A    between atoms: _246  and  _247
REMARK  105  A    between atoms: _246  and  _249
REMARK  106  A    between atoms: _249  and  _250
REMARK  107  A    between atoms: _253  and  _255
REMARK  108  A    between atoms: _255  and  _256
REMARK  109  A    between atoms: _255  and  _258
REMARK  110  A    between atoms: _258  and  _259
REMARK  111  A    between atoms: _264  and  _266
REMARK  112  A    between atoms: _266  and  _267
REMARK  113  A    between atoms: _266  and  _269
REMARK  114  A    between atoms: _269  and  _270
REMARK  115  A    between atoms: _270  and  _271
REMARK  116  A    between atoms: _271  and  _272
REMARK  117  A    between atoms: _272  and  _273
REMARK  118  A    between atoms: _277  and  _279
REMARK  119  A    between atoms: _279  and  _280
REMARK  120  A    between atoms: _279  and  _282
REMARK  121  A    between atoms: _282  and  _283
REMARK  122  A    between atoms: _288  and  _290
REMARK  123  A    between atoms: _290  and  _291
REMARK  124  A    between atoms: _290  and  _293
REMARK  125  A    between atoms: _293  and  _294
REMARK  126  A    between atoms: _294  and  _295
REMARK  127  A    between atoms: _295  and  _296
REMARK  128  A    between atoms: _305  and  _307
REMARK  129  A    between atoms: _307  and  _308
REMARK  130  A    between atoms: _307  and  _310
REMARK  131  A    between atoms: _310  and  _311
REMARK  132  A    between atoms: _316  and  _318
REMARK  133  A    between atoms: _318  and  _319
REMARK  134  A    between atoms: _318  and  _321
REMARK  135  A    between atoms: _321  and  _322
REMARK  136  A    between atoms: _322  and  _323
REMARK  137  A    between atoms: _323  and  _324
REMARK  138  A    between atoms: _324  and  _325
REMARK                            x       y       z     vdW  Elec       q    Type
REMARK                         _______ _______ _______ _____ _____    ______ ____
ROOT
ATOM      1  O   HOH     1      28.418  33.539   5.633  0.00  0.00    +0.000 OA
ENDROOT
TORSDOF 0
REMARK  Name = ../refined-set-2016/1h0a/1h0a_pocket.pdb
REMARK  138 active torsions:
REMARK  status: ('A' for Active; 'I' for Inactive)
REMARK    1  A    between atoms: _1  and  _5
REMARK    2  A    between atoms: _5  and  _6
REMARK    3  A    between atoms: _5  and  _8
REMARK    4  A    between atoms: _9  and  _10
REMARK    5  A    between atoms: _12  and  _14
REMARK    6  A    between atoms: _14  and  _15
REMARK    7  A    between atoms: _14  and  _17
REMARK    8  A    between atoms: _17  and  _18
REMARK    9  A    between atoms: _21  and  _23
REMARK   10  A    between atoms: _23  and  _24
REMARK   11  A    between atoms: _23  and  _26
REMARK   12  A    between atoms: _26  and  _27
REMARK   13  A    between atoms: _29  and  _31
REMARK   14  A    between atoms: _31  and  _32
REMARK   15  A    between atoms: _31  and  _34
REMARK   16  A    between atoms: _34  and  _35
REMARK   17  A    between atoms: _37  and  _39
REMARK   18  A    between atoms: _39  and  _40
REMARK   19  A    between atoms: _39  and  _42
REMARK   20  A    between atoms: _42  and  _43
REMARK   21  A    between atoms: _46  and  _48
REMARK   22  A    between atoms: _48  and  _49
REMARK   23  A    between atoms: _48  and  _51
REMARK   24  A    between atoms: _51  and  _52
REMARK   25  A    between atoms: _52  and  _53
REMARK   26  A    between atoms: _53  and  _54
REMARK   27  A    between atoms: _63  and  _65
REMARK   28  A    between atoms: _65  and  _66
REMARK   29  A    between atoms: _65  and  _68
REMARK   30  A    between atoms: _68  and  _69
REMARK   31  A    between atoms: _69  and  _70
REMARK   32  A    between atoms: _70  and  _71
REMARK   33  A    between atoms: _80  and  _82
REMARK   34  A    between atoms: _82  and  _83
REMARK   35  A    between atoms: _82  and  _85
REMARK   36  A    between atoms: _85  and  _86
REMARK   37  A    between atoms: _86  and  _87
REMARK   38  A    between atoms: _92  and  _94
REMARK   39  A    between atoms: _94  and  _95
REMARK   40  A    between atoms: _94  and  _97
REMARK   41  A    between atoms: _97  and  _98
REMARK   42  A    between atoms: _98  and  _99
REMARK   43  A    between atoms: _99  and  _100
REMARK   44  A    between atoms: _100  and  _101
REMARK   45  A    between atoms: _105  and  _107
REMARK   46  A    between atoms: _107  and  _108
REMARK   47  A    between atoms: _107  and  _110
REMARK   48  A    between atoms: _110  and  _111
REMARK   49  A    between atoms: _116  and  _118
REMARK   50  A    between atoms: _118  and  _119
REMARK   51  A    between atoms: _118  and  _121
REMARK   52  A    between atoms: _121  and  _122
REMARK   53  A    between atoms: _127  and  _129
REMARK   54  A    between atoms: _129  and  _130
REMARK   55  A    between atoms: _129  and  _132
REMARK   56  A    between atoms: _132  and  _133
REMARK   57  A    between atoms: _138  and  _139
REMARK   58  A    between atoms: _141  and  _143
REMARK   59  A    between atoms: _143  and  _144
REMARK   60  A    between atoms: _143  and  _146
REMARK   61  A    between atoms: _146  and  _147
REMARK   62  A    between atoms: _147  and  _148
REMARK   63  A    between atoms: _148  and  _149
REMARK   64  A    between atoms: _158  and  _160
REMARK   65  A    between atoms: _160  and  _161
REMARK   66  A    between atoms: _160  and  _163
REMARK   67  A    between atoms: _163  and  _164
REMARK   68  A    between atoms: _164  and  _165
REMARK   69  A    between atoms: _168  and  _170
REMARK   70  A    between atoms: _170  and  _171
REMARK   71  A    between atoms: _170  and  _173
REMARK   72  A    between atoms: _173  and  _174
REMARK   73  A    between atoms: _177  and  _179
REMARK   74  A    between atoms: _179  and  _180
REMARK   75  A    between atoms: _179  and  _182
REMARK   76  A    between atoms: _182  and  _183
REMARK   77  A    between atoms: _185  and  _187
REMARK   78  A    between atoms: _187  and  _188
REMARK   79  A    between atoms: _187  and  _190
REMARK   80  A    between atoms: _190  and  _191
REMARK   81  A    between atoms: _196  and  _198
REMARK   82  A    between atoms: _198  and  _199
REMARK   83  A    between atoms: _198  and  _201
REMARK   84  A    between atoms: _201  and  _202
REMARK   85  A    between atoms: _205  and  _207
REMARK   86  A    between atoms: _207  and  _208
REMARK   87  A    between atoms: _207  and  _210
REMARK   88  A    between atoms: _210  and  _211
REMARK   89  A    between atoms: _211  and  _212
REMARK   90  A    between atoms: _214  and  _216
REMARK   91  A    between atoms: _216  and  _217
REMARK   92  A    between atoms: _216  and  _219
REMARK   93  A    between atoms: _219  and  _220
REMARK   94  A    between atoms: _220  and  _221
REMARK   95  A    between atoms: _221  and  _222
REMARK   96  A    between atoms: _222  and  _223
REMARK   97  A    between atoms: _227  and  _229
REMARK   98  A    between atoms: _229  and  _230
REMARK   99  A    between atoms: _229  and  _232
REMARK  100  A    between atoms: _232  and  _233
REMARK  101  A    between atoms: _233  and  _234
REMARK  102  A    between atoms: _234  and  _235
REMARK  103  A    between atoms: _244  and  _246
REMARK  104  A    between atoms: _246  and  _247
REMARK  105  A    between atoms: _246  and  _249
REMARK  106  A    between atoms: _249  and  _250
REMARK  107  A    between atoms: _253  and  _255
REMARK  108  A    between atoms: _255  and  _256
REMARK  109  A    between atoms: _255  and  _258
REMARK  110  A    between atoms: _258  and  _259
REMARK  111  A    between atoms: _264  and  _266
REMARK  112  A    between atoms: _266  and  _267
REMARK  113  A    between atoms: _266  and  _269
REMARK  114  A    between atoms: _269  and  _270
REMARK  115  A    between atoms: _270  and  _271
REMARK  116  A    between atoms: _271  and  _272
REMARK  117  A    between atoms: _272  and  _273
REMARK  118  A    between atoms: _277  and  _279
REMARK  119  A    between atoms: _279  and  _280
REMARK  120  A    between atoms: _279  and  _282
REMARK  121  A    between atoms: _282  and  _283
REMARK  122  A    between atoms: _288  and  _290
REMARK  123  A    between atoms: _290  and  _291
REMARK  124  A    between atoms: _290  and  _293
REMARK  125  A    between atoms: _293  and  _294
REMARK  126  A    between atoms: _294  and  _295
REMARK  127  A    between atoms: _295  and  _296
REMARK  128  A    between atoms: _305  and  _307
REMARK  129  A    between atoms: _307  and  _308
REMARK  130  A    between atoms: _307  and  _310
REMARK  131  A    between atoms: _310  and  _311
REMARK  132  A    between atoms: _316  and  _318
REMARK  133  A    between atoms: _318  and  _319
REMARK  134  A    between atoms: _318  and  _321
REMARK  135  A    between atoms: _321  and  _322
REMARK  136  A    between atoms: _322  and  _323
REMARK  137  A    between atoms: _323  and  _324
REMARK  138  A    between atoms: _324  and  _325
REMARK                            x       y       z     vdW  Elec       q    Type
REMARK                         _______ _______ _______ _____ _____    ______ ____
ROOT
ATOM      1  O   HOH     1      28.501  34.696   2.270  0.00  0.00    +0.000 OA
ENDROOT
TORSDOF 0
REMARK  Name = ../refined-set-2016/1h0a/1h0a_pocket.pdb
REMARK  138 active torsions:
REMARK  status: ('A' for Active; 'I' for Inactive)
REMARK    1  A    between atoms: _1  and  _5
REMARK    2  A    between atoms: _5  and  _6
REMARK    3  A    between atoms: _5  and  _8
REMARK    4  A    between atoms: _9  and  _10
REMARK    5  A    between atoms: _12  and  _14
REMARK    6  A    between atoms: _14  and  _15
REMARK    7  A    between atoms: _14  and  _17
REMARK    8  A    between atoms: _17  and  _18
REMARK    9  A    between atoms: _21  and  _23
REMARK   10  A    between atoms: _23  and  _24
REMARK   11  A    between atoms: _23  and  _26
REMARK   12  A    between atoms: _26  and  _27
REMARK   13  A    between atoms: _29  and  _31
REMARK   14  A    between atoms: _31  and  _32
REMARK   15  A    between atoms: _31  and  _34
REMARK   16  A    between atoms: _34  and  _35
REMARK   17  A    between atoms: _37  and  _39
REMARK   18  A    between atoms: _39  and  _40
REMARK   19  A    between atoms: _39  and  _42
REMARK   20  A    between atoms: _42  and  _43
REMARK   21  A    between atoms: _46  and  _48
REMARK   22  A    between atoms: _48  and  _49
REMARK   23  A    between atoms: _48  and  _51
REMARK   24  A    between atoms: _51  and  _52
REMARK   25  A    between atoms: _52  and  _53
REMARK   26  A    between atoms: _53  and  _54
REMARK   27  A    between atoms: _63  and  _65
REMARK   28  A    between atoms: _65  and  _66
REMARK   29  A    between atoms: _65  and  _68
REMARK   30  A    between atoms: _68  and  _69
REMARK   31  A    between atoms: _69  and  _70
REMARK   32  A    between atoms: _70  and  _71
REMARK   33  A    between atoms: _80  and  _82
REMARK   34  A    between atoms: _82  and  _83
REMARK   35  A    between atoms: _82  and  _85
REMARK   36  A    between atoms: _85  and  _86
REMARK   37  A    between atoms: _86  and  _87
REMARK   38  A    between atoms: _92  and  _94
REMARK   39  A    between atoms: _94  and  _95
REMARK   40  A    between atoms: _94  and  _97
REMARK   41  A    between atoms: _97  and  _98
REMARK   42  A    between atoms: _98  and  _99
REMARK   43  A    between atoms: _99  and  _100
REMARK   44  A    between atoms: _100  and  _101
REMARK   45  A    between atoms: _105  and  _107
REMARK   46  A    between atoms: _107  and  _108
REMARK   47  A    between atoms: _107  and  _110
REMARK   48  A    between atoms: _110  and  _111
REMARK   49  A    between atoms: _116  and  _118
REMARK   50  A    between atoms: _118  and  _119
REMARK   51  A    between atoms: _118  and  _121
REMARK   52  A    between atoms: _121  and  _122
REMARK   53  A    between atoms: _127  and  _129
REMARK   54  A    between atoms: _129  and  _130
REMARK   55  A    between atoms: _129  and  _132
REMARK   56  A    between atoms: _132  and  _133
REMARK   57  A    between atoms: _138  and  _139
REMARK   58  A    between atoms: _141  and  _143
REMARK   59  A    between atoms: _143  and  _144
REMARK   60  A    between atoms: _143  and  _146
REMARK   61  A    between atoms: _146  and  _147
REMARK   62  A    between atoms: _147  and  _148
REMARK   63  A    between atoms: _148  and  _149
REMARK   64  A    between atoms: _158  and  _160
REMARK   65  A    between atoms: _160  and  _161
REMARK   66  A    between atoms: _160  and  _163
REMARK   67  A    between atoms: _163  and  _164
REMARK   68  A    between atoms: _164  and  _165
REMARK   69  A    between atoms: _168  and  _170
REMARK   70  A    between atoms: _170  and  _171
REMARK   71  A    between atoms: _170  and  _173
REMARK   72  A    between atoms: _173  and  _174
REMARK   73  A    between atoms: _177  and  _179
REMARK   74  A    between atoms: _179  and  _180
REMARK   75  A    between atoms: _179  and  _182
REMARK   76  A    between atoms: _182  and  _183
REMARK   77  A    between atoms: _185  and  _187
REMARK   78  A    between atoms: _187  and  _188
REMARK   79  A    between atoms: _187  and  _190
REMARK   80  A    between atoms: _190  and  _191
REMARK   81  A    between atoms: _196  and  _198
REMARK   82  A    between atoms: _198  and  _199
REMARK   83  A    between atoms: _198  and  _201
REMARK   84  A    between atoms: _201  and  _202
REMARK   85  A    between atoms: _205  and  _207
REMARK   86  A    between atoms: _207  and  _208
REMARK   87  A    between atoms: _207  and  _210
REMARK   88  A    between atoms: _210  and  _211
REMARK   89  A    between atoms: _211  and  _212
REMARK   90  A    between atoms: _214  and  _216
REMARK   91  A    between atoms: _216  and  _217
REMARK   92  A    between atoms: _216  and  _219
REMARK   93  A    between atoms: _219  and  _220
REMARK   94  A    between atoms: _220  and  _221
REMARK   95  A    between atoms: _221  and  _222
REMARK   96  A    between atoms: _222  and  _223
REMARK   97  A    between atoms: _227  and  _229
REMARK   98  A    between atoms: _229  and  _230
REMARK   99  A    between atoms: _229  and  _232
REMARK  100  A    between atoms: _232  and  _233
REMARK  101  A    between atoms: _233  and  _234
REMARK  102  A    between atoms: _234  and  _235
REMARK  103  A    between atoms: _244  and  _246
REMARK  104  A    between atoms: _246  and  _247
REMARK  105  A    between atoms: _246  and  _249
REMARK  106  A    between atoms: _249  and  _250
REMARK  107  A    between atoms: _253  and  _255
REMARK  108  A    between atoms: _255  and  _256
REMARK  109  A    between atoms: _255  and  _258
REMARK  110  A    between atoms: _258  and  _259
REMARK  111  A    between atoms: _264  and  _266
REMARK  112  A    between atoms: _266  and  _267
REMARK  113  A    between atoms: _266  and  _269
REMARK  114  A    between atoms: _269  and  _270
REMARK  115  A    between atoms: _270  and  _271
REMARK  116  A    between atoms: _271  and  _272
REMARK  117  A    between atoms: _272  and  _273
REMARK  118  A    between atoms: _277  and  _279
REMARK  119  A    between atoms: _279  and  _280
REMARK  120  A    between atoms: _279  and  _282
REMARK  121  A    between atoms: _282  and  _283
REMARK  122  A    between atoms: _288  and  _290
REMARK  123  A    between atoms: _290  and  _291
REMARK  124  A    between atoms: _290  and  _293
REMARK  125  A    between atoms: _293  and  _294
REMARK  126  A    between atoms: _294  and  _295
REMARK  127  A    between atoms: _295  and  _296
REMARK  128  A    between atoms: _305  and  _307
REMARK  129  A    between atoms: _307  and  _308
REMARK  130  A    between atoms: _307  and  _310
REMARK  131  A    between atoms: _310  and  _311
REMARK  132  A    between atoms: _316  and  _318
REMARK  133  A    between atoms: _318  and  _319
REMARK  134  A    between atoms: _318  and  _321
REMARK  135  A    between atoms: _321  and  _322
REMARK  136  A    between atoms: _322  and  _323
REMARK  137  A    between atoms: _323  and  _324
REMARK  138  A    between atoms: _324  and  _325
REMARK                            x       y       z     vdW  Elec       q    Type
REMARK                         _______ _______ _______ _____ _____    ______ ____
ROOT
ATOM      1  O   HOH     1      28.767  35.825   6.918  0.00  0.00    +0.000 OA
ENDROOT
TORSDOF 0
REMARK  Name = ../refined-set-2016/1h0a/1h0a_pocket.pdb
REMARK  138 active torsions:
REMARK  status: ('A' for Active; 'I' for Inactive)
REMARK    1  A    between atoms: _1  and  _5
REMARK    2  A    between atoms: _5  and  _6
REMARK    3  A    between atoms: _5  and  _8
REMARK    4  A    between atoms: _9  and  _10
REMARK    5  A    between atoms: _12  and  _14
REMARK    6  A    between atoms: _14  and  _15
REMARK    7  A    between atoms: _14  and  _17
REMARK    8  A    between atoms: _17  and  _18
REMARK    9  A    between atoms: _21  and  _23
REMARK   10  A    between atoms: _23  and  _24
REMARK   11  A    between atoms: _23  and  _26
REMARK   12  A    between atoms: _26  and  _27
REMARK   13  A    between atoms: _29  and  _31
REMARK   14  A    between atoms: _31  and  _32
REMARK   15  A    between atoms: _31  and  _34
REMARK   16  A    between atoms: _34  and  _35
REMARK   17  A    between atoms: _37  and  _39
REMARK   18  A    between atoms: _39  and  _40
REMARK   19  A    between atoms: _39  and  _42
REMARK   20  A    between atoms: _42  and  _43
REMARK   21  A    between atoms: _46  and  _48
REMARK   22  A    between atoms: _48  and  _49
REMARK   23  A    between atoms: _48  and  _51
REMARK   24  A    between atoms: _51  and  _52
REMARK   25  A    between atoms: _52  and  _53
REMARK   26  A    between atoms: _53  and  _54
REMARK   27  A    between atoms: _63  and  _65
REMARK   28  A    between atoms: _65  and  _66
REMARK   29  A    between atoms: _65  and  _68
REMARK   30  A    between atoms: _68  and  _69
REMARK   31  A    between atoms: _69  and  _70
REMARK   32  A    between atoms: _70  and  _71
REMARK   33  A    between atoms: _80  and  _82
REMARK   34  A    between atoms: _82  and  _83
REMARK   35  A    between atoms: _82  and  _85
REMARK   36  A    between atoms: _85  and  _86
REMARK   37  A    between atoms: _86  and  _87
REMARK   38  A    between atoms: _92  and  _94
REMARK   39  A    between atoms: _94  and  _95
REMARK   40  A    between atoms: _94  and  _97
REMARK   41  A    between atoms: _97  and  _98
REMARK   42  A    between atoms: _98  and  _99
REMARK   43  A    between atoms: _99  and  _100
REMARK   44  A    between atoms: _100  and  _101
REMARK   45  A    between atoms: _105  and  _107
REMARK   46  A    between atoms: _107  and  _108
REMARK   47  A    between atoms: _107  and  _110
REMARK   48  A    between atoms: _110  and  _111
REMARK   49  A    between atoms: _116  and  _118
REMARK   50  A    between atoms: _118  and  _119
REMARK   51  A    between atoms: _118  and  _121
REMARK   52  A    between atoms: _121  and  _122
REMARK   53  A    between atoms: _127  and  _129
REMARK   54  A    between atoms: _129  and  _130
REMARK   55  A    between atoms: _129  and  _132
REMARK   56  A    between atoms: _132  and  _133
REMARK   57  A    between atoms: _138  and  _139
REMARK   58  A    between atoms: _141  and  _143
REMARK   59  A    between atoms: _143  and  _144
REMARK   60  A    between atoms: _143  and  _146
REMARK   61  A    between atoms: _146  and  _147
REMARK   62  A    between atoms: _147  and  _148
REMARK   63  A    between atoms: _148  and  _149
REMARK   64  A    between atoms: _158  and  _160
REMARK   65  A    between atoms: _160  and  _161
REMARK   66  A    between atoms: _160  and  _163
REMARK   67  A    between atoms: _163  and  _164
REMARK   68  A    between atoms: _164  and  _165
REMARK   69  A    between atoms: _168  and  _170
REMARK   70  A    between atoms: _170  and  _171
REMARK   71  A    between atoms: _170  and  _173
REMARK   72  A    between atoms: _173  and  _174
REMARK   73  A    between atoms: _177  and  _179
REMARK   74  A    between atoms: _179  and  _180
REMARK   75  A    between atoms: _179  and  _182
REMARK   76  A    between atoms: _182  and  _183
REMARK   77  A    between atoms: _185  and  _187
REMARK   78  A    between atoms: _187  and  _188
REMARK   79  A    between atoms: _187  and  _190
REMARK   80  A    between atoms: _190  and  _191
REMARK   81  A    between atoms: _196  and  _198
REMARK   82  A    between atoms: _198  and  _199
REMARK   83  A    between atoms: _198  and  _201
REMARK   84  A    between atoms: _201  and  _202
REMARK   85  A    between atoms: _205  and  _207
REMARK   86  A    between atoms: _207  and  _208
REMARK   87  A    between atoms: _207  and  _210
REMARK   88  A    between atoms: _210  and  _211
REMARK   89  A    between atoms: _211  and  _212
REMARK   90  A    between atoms: _214  and  _216
REMARK   91  A    between atoms: _216  and  _217
REMARK   92  A    between atoms: _216  and  _219
REMARK   93  A    between atoms: _219  and  _220
REMARK   94  A    between atoms: _220  and  _221
REMARK   95  A    between atoms: _221  and  _222
REMARK   96  A    between atoms: _222  and  _223
REMARK   97  A    between atoms: _227  and  _229
REMARK   98  A    between atoms: _229  and  _230
REMARK   99  A    between atoms: _229  and  _232
REMARK  100  A    between atoms: _232  and  _233
REMARK  101  A    between atoms: _233  and  _234
REMARK  102  A    between atoms: _234  and  _235
REMARK  103  A    between atoms: _244  and  _246
REMARK  104  A    between atoms: _246  and  _247
REMARK  105  A    between atoms: _246  and  _249
REMARK  106  A    between atoms: _249  and  _250
REMARK  107  A    between atoms: _253  and  _255
REMARK  108  A    between atoms: _255  and  _256
REMARK  109  A    between atoms: _255  and  _258
REMARK  110  A    between atoms: _258  and  _259
REMARK  111  A    between atoms: _264  and  _266
REMARK  112  A    between atoms: _266  and  _267
REMARK  113  A    between atoms: _266  and  _269
REMARK  114  A    between atoms: _269  and  _270
REMARK  115  A    between atoms: _270  and  _271
REMARK  116  A    between atoms: _271  and  _272
REMARK  117  A    between atoms: _272  and  _273
REMARK  118  A    between atoms: _277  and  _279
REMARK  119  A    between atoms: _279  and  _280
REMARK  120  A    between atoms: _279  and  _282
REMARK  121  A    between atoms: _282  and  _283
REMARK  122  A    between atoms: _288  and  _290
REMARK  123  A    between atoms: _290  and  _291
REMARK  124  A    between atoms: _290  and  _293
REMARK  125  A    between atoms: _293  and  _294
REMARK  126  A    between atoms: _294  and  _295
REMARK  127  A    between atoms: _295  and  _296
REMARK  128  A    between atoms: _305  and  _307
REMARK  129  A    between atoms: _307  and  _308
REMARK  130  A    between atoms: _307  and  _310
REMARK  131  A    between atoms: _310  and  _311
REMARK  132  A    between atoms: _316  and  _318
REMARK  133  A    between atoms: _318  and  _319
REMARK  134  A    between atoms: _318  and  _321
REMARK  135  A    between atoms: _321  and  _322
REMARK  136  A    between atoms: _322  and  _323
REMARK  137  A    between atoms: _323  and  _324
REMARK  138  A    between atoms: _324  and  _325
REMARK                            x       y       z     vdW  Elec       q    Type
REMARK                         _______ _______ _______ _____ _____    ______ ____
ROOT
ATOM      1  O   HOH     1      29.449  31.952   0.838  0.00  0.00    +0.000 OA
ENDROOT
TORSDOF 0
REMARK  Name = ../refined-set-2016/1h0a/1h0a_pocket.pdb
REMARK  138 active torsions:
REMARK  status: ('A' for Active; 'I' for Inactive)
REMARK    1  A    between atoms: _1  and  _5
REMARK    2  A    between atoms: _5  and  _6
REMARK    3  A    between atoms: _5  and  _8
REMARK    4  A    between atoms: _9  and  _10
REMARK    5  A    between atoms: _12  and  _14
REMARK    6  A    between atoms: _14  and  _15
REMARK    7  A    between atoms: _14  and  _17
REMARK    8  A    between atoms: _17  and  _18
REMARK    9  A    between atoms: _21  and  _23
REMARK   10  A    between atoms: _23  and  _24
REMARK   11  A    between atoms: _23  and  _26
REMARK   12  A    between atoms: _26  and  _27
REMARK   13  A    between atoms: _29  and  _31
REMARK   14  A    between atoms: _31  and  _32
REMARK   15  A    between atoms: _31  and  _34
REMARK   16  A    between atoms: _34  and  _35
REMARK   17  A    between atoms: _37  and  _39
REMARK   18  A    between atoms: _39  and  _40
REMARK   19  A    between atoms: _39  and  _42
REMARK   20  A    between atoms: _42  and  _43
REMARK   21  A    between atoms: _46  and  _48
REMARK   22  A    between atoms: _48  and  _49
REMARK   23  A    between atoms: _48  and  _51
REMARK   24  A    between atoms: _51  and  _52
REMARK   25  A    between atoms: _52  and  _53
REMARK   26  A    between atoms: _53  and  _54
REMARK   27  A    between atoms: _63  and  _65
REMARK   28  A    between atoms: _65  and  _66
REMARK   29  A    between atoms: _65  and  _68
REMARK   30  A    between atoms: _68  and  _69
REMARK   31  A    between atoms: _69  and  _70
REMARK   32  A    between atoms: _70  and  _71
REMARK   33  A    between atoms: _80  and  _82
REMARK   34  A    between atoms: _82  and  _83
REMARK   35  A    between atoms: _82  and  _85
REMARK   36  A    between atoms: _85  and  _86
REMARK   37  A    between atoms: _86  and  _87
REMARK   38  A    between atoms: _92  and  _94
REMARK   39  A    between atoms: _94  and  _95
REMARK   40  A    between atoms: _94  and  _97
REMARK   41  A    between atoms: _97  and  _98
REMARK   42  A    between atoms: _98  and  _99
REMARK   43  A    between atoms: _99  and  _100
REMARK   44  A    between atoms: _100  and  _101
REMARK   45  A    between atoms: _105  and  _107
REMARK   46  A    between atoms: _107  and  _108
REMARK   47  A    between atoms: _107  and  _110
REMARK   48  A    between atoms: _110  and  _111
REMARK   49  A    between atoms: _116  and  _118
REMARK   50  A    between atoms: _118  and  _119
REMARK   51  A    between atoms: _118  and  _121
REMARK   52  A    between atoms: _121  and  _122
REMARK   53  A    between atoms: _127  and  _129
REMARK   54  A    between atoms: _129  and  _130
REMARK   55  A    between atoms: _129  and  _132
REMARK   56  A    between atoms: _132  and  _133
REMARK   57  A    between atoms: _138  and  _139
REMARK   58  A    between atoms: _141  and  _143
REMARK   59  A    between atoms: _143  and  _144
REMARK   60  A    between atoms: _143  and  _146
REMARK   61  A    between atoms: _146  and  _147
REMARK   62  A    between atoms: _147  and  _148
REMARK   63  A    between atoms: _148  and  _149
REMARK   64  A    between atoms: _158  and  _160
REMARK   65  A    between atoms: _160  and  _161
REMARK   66  A    between atoms: _160  and  _163
REMARK   67  A    between atoms: _163  and  _164
REMARK   68  A    between atoms: _164  and  _165
REMARK   69  A    between atoms: _168  and  _170
REMARK   70  A    between atoms: _170  and  _171
REMARK   71  A    between atoms: _170  and  _173
REMARK   72  A    between atoms: _173  and  _174
REMARK   73  A    between atoms: _177  and  _179
REMARK   74  A    between atoms: _179  and  _180
REMARK   75  A    between atoms: _179  and  _182
REMARK   76  A    between atoms: _182  and  _183
REMARK   77  A    between atoms: _185  and  _187
REMARK   78  A    between atoms: _187  and  _188
REMARK   79  A    between atoms: _187  and  _190
REMARK   80  A    between atoms: _190  and  _191
REMARK   81  A    between atoms: _196  and  _198
REMARK   82  A    between atoms: _198  and  _199
REMARK   83  A    between atoms: _198  and  _201
REMARK   84  A    between atoms: _201  and  _202
REMARK   85  A    between atoms: _205  and  _207
REMARK   86  A    between atoms: _207  and  _208
REMARK   87  A    between atoms: _207  and  _210
REMARK   88  A    between atoms: _210  and  _211
REMARK   89  A    between atoms: _211  and  _212
REMARK   90  A    between atoms: _214  and  _216
REMARK   91  A    between atoms: _216  and  _217
REMARK   92  A    between atoms: _216  and  _219
REMARK   93  A    between atoms: _219  and  _220
REMARK   94  A    between atoms: _220  and  _221
REMARK   95  A    between atoms: _221  and  _222
REMARK   96  A    between atoms: _222  and  _223
REMARK   97  A    between atoms: _227  and  _229
REMARK   98  A    between atoms: _229  and  _230
REMARK   99  A    between atoms: _229  and  _232
REMARK  100  A    between atoms: _232  and  _233
REMARK  101  A    between atoms: _233  and  _234
REMARK  102  A    between atoms: _234  and  _235
REMARK  103  A    between atoms: _244  and  _246
REMARK  104  A    between atoms: _246  and  _247
REMARK  105  A    between atoms: _246  and  _249
REMARK  106  A    between atoms: _249  and  _250
REMARK  107  A    between atoms: _253  and  _255
REMARK  108  A    between atoms: _255  and  _256
REMARK  109  A    between atoms: _255  and  _258
REMARK  110  A    between atoms: _258  and  _259
REMARK  111  A    between atoms: _264  and  _266
REMARK  112  A    between atoms: _266  and  _267
REMARK  113  A    between atoms: _266  and  _269
REMARK  114  A    between atoms: _269  and  _270
REMARK  115  A    between atoms: _270  and  _271
REMARK  116  A    between atoms: _271  and  _272
REMARK  117  A    between atoms: _272  and  _273
REMARK  118  A    between atoms: _277  and  _279
REMARK  119  A    between atoms: _279  and  _280
REMARK  120  A    between atoms: _279  and  _282
REMARK  121  A    between atoms: _282  and  _283
REMARK  122  A    between atoms: _288  and  _290
REMARK  123  A    between atoms: _290  and  _291
REMARK  124  A    between atoms: _290  and  _293
REMARK  125  A    between atoms: _293  and  _294
REMARK  126  A    between atoms: _294  and  _295
REMARK  127  A    between atoms: _295  and  _296
REMARK  128  A    between atoms: _305  and  _307
REMARK  129  A    between atoms: _307  and  _308
REMARK  130  A    between atoms: _307  and  _310
REMARK  131  A    between atoms: _310  and  _311
REMARK  132  A    between atoms: _316  and  _318
REMARK  133  A    between atoms: _318  and  _319
REMARK  134  A    between atoms: _318  and  _321
REMARK  135  A    between atoms: _321  and  _322
REMARK  136  A    between atoms: _322  and  _323
REMARK  137  A    between atoms: _323  and  _324
REMARK  138  A    between atoms: _324  and  _325
REMARK                            x       y       z     vdW  Elec       q    Type
REMARK                         _______ _______ _______ _____ _____    ______ ____
ROOT
ATOM      1  O   HOH     1      17.142  31.258   6.202  0.00  0.00    +0.000 OA
ENDROOT
TORSDOF 0
REMARK  Name = ../refined-set-2016/1h0a/1h0a_pocket.pdb
REMARK  138 active torsions:
REMARK  status: ('A' for Active; 'I' for Inactive)
REMARK    1  A    between atoms: _1  and  _5
REMARK    2  A    between atoms: _5  and  _6
REMARK    3  A    between atoms: _5  and  _8
REMARK    4  A    between atoms: _9  and  _10
REMARK    5  A    between atoms: _12  and  _14
REMARK    6  A    between atoms: _14  and  _15
REMARK    7  A    between atoms: _14  and  _17
REMARK    8  A    between atoms: _17  and  _18
REMARK    9  A    between atoms: _21  and  _23
REMARK   10  A    between atoms: _23  and  _24
REMARK   11  A    between atoms: _23  and  _26
REMARK   12  A    between atoms: _26  and  _27
REMARK   13  A    between atoms: _29  and  _31
REMARK   14  A    between atoms: _31  and  _32
REMARK   15  A    between atoms: _31  and  _34
REMARK   16  A    between atoms: _34  and  _35
REMARK   17  A    between atoms: _37  and  _39
REMARK   18  A    between atoms: _39  and  _40
REMARK   19  A    between atoms: _39  and  _42
REMARK   20  A    between atoms: _42  and  _43
REMARK   21  A    between atoms: _46  and  _48
REMARK   22  A    between atoms: _48  and  _49
REMARK   23  A    between atoms: _48  and  _51
REMARK   24  A    between atoms: _51  and  _52
REMARK   25  A    between atoms: _52  and  _53
REMARK   26  A    between atoms: _53  and  _54
REMARK   27  A    between atoms: _63  and  _65
REMARK   28  A    between atoms: _65  and  _66
REMARK   29  A    between atoms: _65  and  _68
REMARK   30  A    between atoms: _68  and  _69
REMARK   31  A    between atoms: _69  and  _70
REMARK   32  A    between atoms: _70  and  _71
REMARK   33  A    between atoms: _80  and  _82
REMARK   34  A    between atoms: _82  and  _83
REMARK   35  A    between atoms: _82  and  _85
REMARK   36  A    between atoms: _85  and  _86
REMARK   37  A    between atoms: _86  and  _87
REMARK   38  A    between atoms: _92  and  _94
REMARK   39  A    between atoms: _94  and  _95
REMARK   40  A    between atoms: _94  and  _97
REMARK   41  A    between atoms: _97  and  _98
REMARK   42  A    between atoms: _98  and  _99
REMARK   43  A    between atoms: _99  and  _100
REMARK   44  A    between atoms: _100  and  _101
REMARK   45  A    between atoms: _105  and  _107
REMARK   46  A    between atoms: _107  and  _108
REMARK   47  A    between atoms: _107  and  _110
REMARK   48  A    between atoms: _110  and  _111
REMARK   49  A    between atoms: _116  and  _118
REMARK   50  A    between atoms: _118  and  _119
REMARK   51  A    between atoms: _118  and  _121
REMARK   52  A    between atoms: _121  and  _122
REMARK   53  A    between atoms: _127  and  _129
REMARK   54  A    between atoms: _129  and  _130
REMARK   55  A    between atoms: _129  and  _132
REMARK   56  A    between atoms: _132  and  _133
REMARK   57  A    between atoms: _138  and  _139
REMARK   58  A    between atoms: _141  and  _143
REMARK   59  A    between atoms: _143  and  _144
REMARK   60  A    between atoms: _143  and  _146
REMARK   61  A    between atoms: _146  and  _147
REMARK   62  A    between atoms: _147  and  _148
REMARK   63  A    between atoms: _148  and  _149
REMARK   64  A    between atoms: _158  and  _160
REMARK   65  A    between atoms: _160  and  _161
REMARK   66  A    between atoms: _160  and  _163
REMARK   67  A    between atoms: _163  and  _164
REMARK   68  A    between atoms: _164  and  _165
REMARK   69  A    between atoms: _168  and  _170
REMARK   70  A    between atoms: _170  and  _171
REMARK   71  A    between atoms: _170  and  _173
REMARK   72  A    between atoms: _173  and  _174
REMARK   73  A    between atoms: _177  and  _179
REMARK   74  A    between atoms: _179  and  _180
REMARK   75  A    between atoms: _179  and  _182
REMARK   76  A    between atoms: _182  and  _183
REMARK   77  A    between atoms: _185  and  _187
REMARK   78  A    between atoms: _187  and  _188
REMARK   79  A    between atoms: _187  and  _190
REMARK   80  A    between atoms: _190  and  _191
REMARK   81  A    between atoms: _196  and  _198
REMARK   82  A    between atoms: _198  and  _199
REMARK   83  A    between atoms: _198  and  _201
REMARK   84  A    between atoms: _201  and  _202
REMARK   85  A    between atoms: _205  and  _207
REMARK   86  A    between atoms: _207  and  _208
REMARK   87  A    between atoms: _207  and  _210
REMARK   88  A    between atoms: _210  and  _211
REMARK   89  A    between atoms: _211  and  _212
REMARK   90  A    between atoms: _214  and  _216
REMARK   91  A    between atoms: _216  and  _217
REMARK   92  A    between atoms: _216  and  _219
REMARK   93  A    between atoms: _219  and  _220
REMARK   94  A    between atoms: _220  and  _221
REMARK   95  A    between atoms: _221  and  _222
REMARK   96  A    between atoms: _222  and  _223
REMARK   97  A    between atoms: _227  and  _229
REMARK   98  A    between atoms: _229  and  _230
REMARK   99  A    between atoms: _229  and  _232
REMARK  100  A    between atoms: _232  and  _233
REMARK  101  A    between atoms: _233  and  _234
REMARK  102  A    between atoms: _234  and  _235
REMARK  103  A    between atoms: _244  and  _246
REMARK  104  A    between atoms: _246  and  _247
REMARK  105  A    between atoms: _246  and  _249
REMARK  106  A    between atoms: _249  and  _250
REMARK  107  A    between atoms: _253  and  _255
REMARK  108  A    between atoms: _255  and  _256
REMARK  109  A    between atoms: _255  and  _258
REMARK  110  A    between atoms: _258  and  _259
REMARK  111  A    between atoms: _264  and  _266
REMARK  112  A    between atoms: _266  and  _267
REMARK  113  A    between atoms: _266  and  _269
REMARK  114  A    between atoms: _269  and  _270
REMARK  115  A    between atoms: _270  and  _271
REMARK  116  A    between atoms: _271  and  _272
REMARK  117  A    between atoms: _272  and  _273
REMARK  118  A    between atoms: _277  and  _279
REMARK  119  A    between atoms: _279  and  _280
REMARK  120  A    between atoms: _279  and  _282
REMARK  121  A    between atoms: _282  and  _283
REMARK  122  A    between atoms: _288  and  _290
REMARK  123  A    between atoms: _290  and  _291
REMARK  124  A    between atoms: _290  and  _293
REMARK  125  A    between atoms: _293  and  _294
REMARK  126  A    between atoms: _294  and  _295
REMARK  127  A    between atoms: _295  and  _296
REMARK  128  A    between atoms: _305  and  _307
REMARK  129  A    between atoms: _307  and  _308
REMARK  130  A    between atoms: _307  and  _310
REMARK  131  A    between atoms: _310  and  _311
REMARK  132  A    between atoms: _316  and  _318
REMARK  133  A    between atoms: _318  and  _319
REMARK  134  A    between atoms: _318  and  _321
REMARK  135  A    between atoms: _321  and  _322
REMARK  136  A    between atoms: _322  and  _323
REMARK  137  A    between atoms: _323  and  _324
REMARK  138  A    between atoms: _324  and  _325
REMARK                            x       y       z     vdW  Elec       q    Type
REMARK                         _______ _______ _______ _____ _____    ______ ____
ROOT
ATOM      1  O   HOH     1      28.065  36.532   4.054  0.00  0.00    +0.000 OA
ENDROOT
TORSDOF 0
