REMARK  Name = ../refined-set-2016/2jdk/2jdk_pocket.pdb
REMARK  94 active torsions:
REMARK  status: ('A' for Active; 'I' for Inactive)
REMARK    1  A    between atoms: _1  and  _3
REMARK    2  A    between atoms: _3  and  _4
REMARK    3  A    between atoms: _3  and  _6
REMARK    4  A    between atoms: _6  and  _7
REMARK    5  A    between atoms: _10  and  _12
REMARK    6  A    between atoms: _12  and  _13
REMARK    7  A    between atoms: _16  and  _18
REMARK    8  A    between atoms: _18  and  _19
REMARK    9  A    between atoms: _22  and  _24
REMARK   10  A    between atoms: _24  and  _25
REMARK   11  A    between atoms: _24  and  _27
REMARK   12  A    between atoms: _27  and  _28
REMARK   13  A    between atoms: _33  and  _35
REMARK   14  A    between atoms: _35  and  _36
REMARK   15  A    between atoms: _35  and  _38
REMARK   16  A    between atoms: _38  and  _39
REMARK   17  A    between atoms: _41  and  _43
REMARK   18  A    between atoms: _43  and  _44
REMARK   19  A    between atoms: _43  and  _46
REMARK   20  A    between atoms: _46  and  _47
REMARK   21  A    between atoms: _49  and  _51
REMARK   22  A    between atoms: _51  and  _52
REMARK   23  A    between atoms: _54  and  _56
REMARK   24  A    between atoms: _56  and  _57
REMARK   25  A    between atoms: _56  and  _59
REMARK   26  A    between atoms: _59  and  _60
REMARK   27  A    between atoms: _63  and  _65
REMARK   28  A    between atoms: _65  and  _66
REMARK   29  A    between atoms: _65  and  _68
REMARK   30  A    between atoms: _68  and  _69
REMARK   31  A    between atoms: _69  and  _70
REMARK   32  A    between atoms: _75  and  _77
REMARK   33  A    between atoms: _77  and  _78
REMARK   34  A    between atoms: _77  and  _80
REMARK   35  A    between atoms: _80  and  _81
REMARK   36  A    between atoms: _81  and  _82
REMARK   37  A    between atoms: _87  and  _89
REMARK   38  A    between atoms: _89  and  _90
REMARK   39  A    between atoms: _89  and  _92
REMARK   40  A    between atoms: _92  and  _93
REMARK   41  A    between atoms: _95  and  _97
REMARK   42  A    between atoms: _97  and  _98
REMARK   43  A    between atoms: _97  and  _100
REMARK   44  A    between atoms: _100  and  _101
REMARK   45  A    between atoms: _104  and  _106
REMARK   46  A    between atoms: _106  and  _107
REMARK   47  A    between atoms: _106  and  _109
REMARK   48  A    between atoms: _112  and  _114
REMARK   49  A    between atoms: _114  and  _115
REMARK   50  A    between atoms: _114  and  _117
REMARK   51  A    between atoms: _117  and  _118
REMARK   52  A    between atoms: _123  and  _125
REMARK   53  A    between atoms: _125  and  _126
REMARK   54  A    between atoms: _125  and  _128
REMARK   55  A    between atoms: _128  and  _129
REMARK   56  A    between atoms: _129  and  _130
REMARK   57  A    between atoms: _130  and  _131
REMARK   58  A    between atoms: _140  and  _142
REMARK   59  A    between atoms: _142  and  _143
REMARK   60  A    between atoms: _142  and  _145
REMARK   61  A    between atoms: _145  and  _146
REMARK   62  A    between atoms: _148  and  _150
REMARK   63  A    between atoms: _150  and  _151
REMARK   64  A    between atoms: _150  and  _153
REMARK   65  A    between atoms: _153  and  _154
REMARK   66  A    between atoms: _156  and  _158
REMARK   67  A    between atoms: _158  and  _159
REMARK   68  A    between atoms: _158  and  _161
REMARK   69  A    between atoms: _161  and  _162
REMARK   70  A    between atoms: _162  and  _163
REMARK   71  A    between atoms: _166  and  _168
REMARK   72  A    between atoms: _168  and  _169
REMARK   73  A    between atoms: _168  and  _171
REMARK   74  A    between atoms: _171  and  _172
REMARK   75  A    between atoms: _175  and  _177
REMARK   76  A    between atoms: _177  and  _178
REMARK   77  A    between atoms: _180  and  _182
REMARK   78  A    between atoms: _182  and  _183
REMARK   79  A    between atoms: _182  and  _185
REMARK   80  A    between atoms: _185  and  _186
REMARK   81  A    between atoms: _189  and  _191
REMARK   82  A    between atoms: _200  and  _203
REMARK   83  A    between atoms: _203  and  _204
REMARK   84  A    between atoms: _211  and  _212
REMARK   85  A    between atoms: _218  and  _220
REMARK   86  A    between atoms: _220  and  _221
REMARK   87  A    between atoms: _220  and  _223
REMARK   88  A    between atoms: _223  and  _224
REMARK   89  A    between atoms: _229  and  _230
REMARK   90  A    between atoms: _232  and  _234
REMARK   91  A    between atoms: _238  and  _240
REMARK   92  A    between atoms: _245  and  _246
REMARK   93  A    between atoms: _252  and  _254
REMARK   94  A    between atoms: _254  and  _255
REMARK                            x       y       z     vdW  Elec       q    Type
REMARK                         _______ _______ _______ _____ _____    ______ ____
ROOT
ATOM      1  C   LEU A   1      34.921  -3.899  -0.361  0.00  0.00    +0.238 C 
ATOM      2  N   GLY A   2      36.189  -3.483  -0.266  0.00  0.00    -0.294 N 
ATOM      3  H   GLY A   2      36.665  -3.511   0.658  0.00  0.00    +0.150 HD
ATOM      4  O   LEU A   1      34.224  -3.761  -1.371  0.00  0.00    -0.274 OA
ENDROOT
BRANCH   1   5
ATOM      5  CA  LEU A   1      34.332  -4.535   0.902  0.00  0.00    +0.145 C 
BRANCH   5   6
ATOM      6  N   LEU A   1      32.916  -4.809   0.686  0.00  0.00    -0.238 NA
ATOM      7  H   LEU A   1      32.655  -5.616   0.084  0.00  0.00    +0.142 HD
ENDBRANCH   5   6
BRANCH   5   8
ATOM      8  CB  LEU A   1      35.098  -5.821   1.266  0.00  0.00    +0.026 C 
BRANCH   8   9
ATOM      9  CG  LEU A   1      34.518  -6.584   2.467  0.00  0.00    +0.002 C 
ATOM     10  CD2 LEU A   1      34.285  -5.679   3.645  0.00  0.00    +0.000 C 
ATOM     11  CD1 LEU A   1      35.511  -7.703   2.808  0.00  0.00    +0.000 C 
ENDBRANCH   8   9
ENDBRANCH   5   8
ENDBRANCH   1   5
BRANCH   2  12
ATOM     12  CA  GLY A   2      36.912  -2.995  -1.420  0.00  0.00    +0.205 C 
BRANCH  12  13
ATOM     13  C   GLY A   2      36.829  -1.524  -1.691  0.00  0.00    +0.385 C 
ATOM     14  OXT GLY A   2      35.927  -0.834  -1.196  0.00  0.00    -0.244 OA
ATOM     15  O   GLY A   2      37.724  -1.102  -2.486  0.00  0.00    -0.244 OA
ENDBRANCH  12  13
ENDBRANCH   2  12
TORSDOF 6
REMARK  Name = ../refined-set-2016/2jdk/2jdk_pocket.pdb
REMARK  94 active torsions:
REMARK  status: ('A' for Active; 'I' for Inactive)
REMARK    1  A    between atoms: _1  and  _3
REMARK    2  A    between atoms: _3  and  _4
REMARK    3  A    between atoms: _3  and  _6
REMARK    4  A    between atoms: _6  and  _7
REMARK    5  A    between atoms: _10  and  _12
REMARK    6  A    between atoms: _12  and  _13
REMARK    7  A    between atoms: _16  and  _18
REMARK    8  A    between atoms: _18  and  _19
REMARK    9  A    between atoms: _22  and  _24
REMARK   10  A    between atoms: _24  and  _25
REMARK   11  A    between atoms: _24  and  _27
REMARK   12  A    between atoms: _27  and  _28
REMARK   13  A    between atoms: _33  and  _35
REMARK   14  A    between atoms: _35  and  _36
REMARK   15  A    between atoms: _35  and  _38
REMARK   16  A    between atoms: _38  and  _39
REMARK   17  A    between atoms: _41  and  _43
REMARK   18  A    between atoms: _43  and  _44
REMARK   19  A    between atoms: _43  and  _46
REMARK   20  A    between atoms: _46  and  _47
REMARK   21  A    between atoms: _49  and  _51
REMARK   22  A    between atoms: _51  and  _52
REMARK   23  A    between atoms: _54  and  _56
REMARK   24  A    between atoms: _56  and  _57
REMARK   25  A    between atoms: _56  and  _59
REMARK   26  A    between atoms: _59  and  _60
REMARK   27  A    between atoms: _63  and  _65
REMARK   28  A    between atoms: _65  and  _66
REMARK   29  A    between atoms: _65  and  _68
REMARK   30  A    between atoms: _68  and  _69
REMARK   31  A    between atoms: _69  and  _70
REMARK   32  A    between atoms: _75  and  _77
REMARK   33  A    between atoms: _77  and  _78
REMARK   34  A    between atoms: _77  and  _80
REMARK   35  A    between atoms: _80  and  _81
REMARK   36  A    between atoms: _81  and  _82
REMARK   37  A    between atoms: _87  and  _89
REMARK   38  A    between atoms: _89  and  _90
REMARK   39  A    between atoms: _89  and  _92
REMARK   40  A    between atoms: _92  and  _93
REMARK   41  A    between atoms: _95  and  _97
REMARK   42  A    between atoms: _97  and  _98
REMARK   43  A    between atoms: _97  and  _100
REMARK   44  A    between atoms: _100  and  _101
REMARK   45  A    between atoms: _104  and  _106
REMARK   46  A    between atoms: _106  and  _107
REMARK   47  A    between atoms: _106  and  _109
REMARK   48  A    between atoms: _112  and  _114
REMARK   49  A    between atoms: _114  and  _115
REMARK   50  A    between atoms: _114  and  _117
REMARK   51  A    between atoms: _117  and  _118
REMARK   52  A    between atoms: _123  and  _125
REMARK   53  A    between atoms: _125  and  _126
REMARK   54  A    between atoms: _125  and  _128
REMARK   55  A    between atoms: _128  and  _129
REMARK   56  A    between atoms: _129  and  _130
REMARK   57  A    between atoms: _130  and  _131
REMARK   58  A    between atoms: _140  and  _142
REMARK   59  A    between atoms: _142  and  _143
REMARK   60  A    between atoms: _142  and  _145
REMARK   61  A    between atoms: _145  and  _146
REMARK   62  A    between atoms: _148  and  _150
REMARK   63  A    between atoms: _150  and  _151
REMARK   64  A    between atoms: _150  and  _153
REMARK   65  A    between atoms: _153  and  _154
REMARK   66  A    between atoms: _156  and  _158
REMARK   67  A    between atoms: _158  and  _159
REMARK   68  A    between atoms: _158  and  _161
REMARK   69  A    between atoms: _161  and  _162
REMARK   70  A    between atoms: _162  and  _163
REMARK   71  A    between atoms: _166  and  _168
REMARK   72  A    between atoms: _168  and  _169
REMARK   73  A    between atoms: _168  and  _171
REMARK   74  A    between atoms: _171  and  _172
REMARK   75  A    between atoms: _175  and  _177
REMARK   76  A    between atoms: _177  and  _178
REMARK   77  A    between atoms: _180  and  _182
REMARK   78  A    between atoms: _182  and  _183
REMARK   79  A    between atoms: _182  and  _185
REMARK   80  A    between atoms: _185  and  _186
REMARK   81  A    between atoms: _189  and  _191
REMARK   82  A    between atoms: _200  and  _203
REMARK   83  A    between atoms: _203  and  _204
REMARK   84  A    between atoms: _211  and  _212
REMARK   85  A    between atoms: _218  and  _220
REMARK   86  A    between atoms: _220  and  _221
REMARK   87  A    between atoms: _220  and  _223
REMARK   88  A    between atoms: _223  and  _224
REMARK   89  A    between atoms: _229  and  _230
REMARK   90  A    between atoms: _232  and  _234
REMARK   91  A    between atoms: _238  and  _240
REMARK   92  A    between atoms: _245  and  _246
REMARK   93  A    between atoms: _252  and  _254
REMARK   94  A    between atoms: _254  and  _255
REMARK                            x       y       z     vdW  Elec       q    Type
REMARK                         _______ _______ _______ _____ _____    ______ ____
ROOT
ATOM      1  CA  SER A   4      43.180   2.626  -2.439  0.00  0.00    +0.178 C 
ENDROOT
BRANCH   1   4
ATOM      2  C   SER A   3      41.502   1.925  -0.821  0.00  0.00    +0.243 C 
ATOM      3  O   SER A   3      42.380   1.419  -0.099  0.00  0.00    -0.273 OA
ATOM      4  N   SER A   4      41.804   2.489  -2.005  0.00  0.00    -0.295 N 
ATOM      5  H   SER A   4      41.038   2.832  -2.619  0.00  0.00    +0.150 HD
BRANCH   2   6
ATOM      6  CA  SER A   3      40.052   2.008  -0.363  0.00  0.00    +0.178 C 
BRANCH   6   8
ATOM      7  C   ASN A   2      38.577   0.596   0.981  0.00  0.00    +0.241 C 
ATOM      8  N   SER A   3      39.797   0.924   0.585  0.00  0.00    -0.295 N 
ATOM      9  H   SER A   3      40.606   0.390   0.963  0.00  0.00    +0.150 HD
ATOM     10  O   ASN A   2      37.557   1.151   0.495  0.00  0.00    -0.273 OA
BRANCH   7  11
ATOM     11  CA  ASN A   2      38.454  -0.463   2.071  0.00  0.00    +0.158 C 
BRANCH  11  14
ATOM     12  C   ALA A   1      39.410  -0.630   4.332  0.00  0.00    +0.238 C 
ATOM     13  O   ALA A   1      39.661  -1.834   4.243  0.00  0.00    -0.274 OA
ATOM     14  N   ASN A   2      38.840   0.121   3.375  0.00  0.00    -0.297 N 
ATOM     15  H   ASN A   2      38.667   1.131   3.554  0.00  0.00    +0.150 HD
BRANCH  12  16
ATOM     16  CA  ALA A   1      39.775   0.151   5.596  0.00  0.00    +0.145 C 
ATOM     17  CB  ALA A   1      41.260   0.586   5.537  0.00  0.00    +0.028 C 
BRANCH  16  18
ATOM     18  N   ALA A   1      39.521  -0.604   6.815  0.00  0.00    -0.238 NA
ATOM     19  H   ALA A   1      40.010  -1.511   6.956  0.00  0.00    +0.142 HD
ENDBRANCH  16  18
ENDBRANCH  12  16
ENDBRANCH  11  14
BRANCH  11  20
ATOM     20  CB  ASN A   2      37.000  -0.993   2.082  0.00  0.00    +0.114 C 
BRANCH  20  21
ATOM     21  CG  ASN A   2      36.822  -2.179   2.963  0.00  0.00    +0.222 C 
ATOM     22  ND2 ASN A   2      36.292  -1.971   4.175  0.00  0.00    -0.329 N 
ATOM     23 HD21 ASN A   2      36.155  -2.770   4.827  0.00  0.00    +0.145 HD
ATOM     24 HD22 ASN A   2      36.017  -1.011   4.464  0.00  0.00    +0.145 HD
ATOM     25  OD1 ASN A   2      37.166  -3.305   2.571  0.00  0.00    -0.275 OA
ENDBRANCH  20  21
ENDBRANCH  11  20
ENDBRANCH   7  11
ENDBRANCH   6   8
BRANCH   6  26
ATOM     26  CB  SER A   3      39.873   3.342   0.343  0.00  0.00    +0.166 C 
BRANCH  26  27
ATOM     27  OG  SER A   3      40.243   4.424  -0.545  0.00  0.00    -0.380 OA
ATOM     28  H   SER A   3      40.124   5.288  -0.078  0.00  0.00    +0.211 HD
ENDBRANCH  26  27
ENDBRANCH   6  26
ENDBRANCH   2   6
ENDBRANCH   1   4
BRANCH   1  29
ATOM     29  C   SER A   4      43.917   3.717  -1.659  0.00  0.00    +0.243 C 
ATOM     30  N   GLY A   5      43.178   4.622  -1.022  0.00  0.00    -0.295 N 
ATOM     31  H   GLY A   5      42.141   4.555  -1.071  0.00  0.00    +0.150 HD
ATOM     32  O   SER A   4      45.146   3.734  -1.662  0.00  0.00    -0.273 OA
BRANCH  30  33
ATOM     33  CA  GLY A   5      43.781   5.702  -0.259  0.00  0.00    +0.176 C 
BRANCH  33  34
ATOM     34  C   GLY A   5      44.070   5.301   1.187  0.00  0.00    +0.243 C 
ATOM     35  O   GLY A   5      43.253   4.572   1.798  0.00  0.00    -0.273 OA
ATOM     36  N   THR A   6      45.176   5.783   1.737  0.00  0.00    -0.295 N 
ATOM     37  H   THR A   6      45.849   6.319   1.152  0.00  0.00    +0.150 HD
BRANCH  36  38
ATOM     38  CA  THR A   6      45.461   5.571   3.155  0.00  0.00    +0.176 C 
BRANCH  38  39
ATOM     39  C   THR A   6      44.446   6.314   3.990  0.00  0.00    +0.243 C 
ATOM     40  N   GLN A   7      43.777   5.590   4.881  0.00  0.00    -0.298 N 
ATOM     41  H   GLN A   7      43.958   4.567   4.937  0.00  0.00    +0.150 HD
ATOM     42  O   THR A   6      44.264   7.532   3.831  0.00  0.00    -0.273 OA
BRANCH  40  43
ATOM     43  CA  GLN A   7      42.802   6.181   5.779  0.00  0.00    +0.137 C 
BRANCH  43  44
ATOM     44  C   GLN A   7      43.485   6.635   7.032  0.00  0.00    +0.227 C 
ATOM     45  O   GLN A   7      44.349   5.936   7.596  0.00  0.00    -0.286 OA
ENDBRANCH  43  44
BRANCH  43  46
ATOM     46  CB  GLN A   7      41.723   5.164   6.138  0.00  0.00    +0.037 C 
BRANCH  46  47
ATOM     47  CG  GLN A   7      41.079   4.530   4.946  0.00  0.00    +0.087 C 
BRANCH  47  48
ATOM     48  CD  GLN A   7      40.309   5.510   4.105  0.00  0.00    +0.219 C 
ATOM     49  OE1 GLN A   7      39.416   6.201   4.641  0.00  0.00    -0.275 OA
ATOM     50  NE2 GLN A   7      40.626   5.623   2.819  0.00  0.00    -0.329 N 
ATOM     51 HE21 GLN A   7      41.376   5.027   2.414  0.00  0.00    +0.145 HD
ATOM     52 HE22 GLN A   7      40.124   6.307   2.218  0.00  0.00    +0.145 HD
ENDBRANCH  47  48
ENDBRANCH  46  47
ENDBRANCH  43  46
ENDBRANCH  40  43
ENDBRANCH  38  39
BRANCH  38  53
ATOM     53  CB  THR A   6      46.863   6.097   3.499  0.00  0.00    +0.137 C 
ATOM     54  CG2 THR A   6      47.164   5.963   4.988  0.00  0.00    +0.034 C 
BRANCH  53  55
ATOM     55  OG1 THR A   6      47.811   5.341   2.737  0.00  0.00    -0.382 OA
ATOM     56  HG1 THR A   6      47.626   5.459   1.772  0.00  0.00    +0.210 HD
ENDBRANCH  53  55
ENDBRANCH  38  53
ENDBRANCH  36  38
ENDBRANCH  33  34
ENDBRANCH  30  33
ENDBRANCH   1  29
BRANCH   1  57
ATOM     57  CB  SER A   4      43.245   2.902  -3.945  0.00  0.00    +0.166 C 
BRANCH  57  58
ATOM     58  OG  SER A   4      42.541   4.072  -4.281  0.00  0.00    -0.380 OA
ATOM     59  H   SER A   4      42.936   4.843  -3.802  0.00  0.00    +0.211 HD
ENDBRANCH  57  58
ENDBRANCH   1  57
TORSDOF 25
REMARK  Name = ../refined-set-2016/2jdk/2jdk_pocket.pdb
REMARK  94 active torsions:
REMARK  status: ('A' for Active; 'I' for Inactive)
REMARK    1  A    between atoms: _1  and  _3
REMARK    2  A    between atoms: _3  and  _4
REMARK    3  A    between atoms: _3  and  _6
REMARK    4  A    between atoms: _6  and  _7
REMARK    5  A    between atoms: _10  and  _12
REMARK    6  A    between atoms: _12  and  _13
REMARK    7  A    between atoms: _16  and  _18
REMARK    8  A    between atoms: _18  and  _19
REMARK    9  A    between atoms: _22  and  _24
REMARK   10  A    between atoms: _24  and  _25
REMARK   11  A    between atoms: _24  and  _27
REMARK   12  A    between atoms: _27  and  _28
REMARK   13  A    between atoms: _33  and  _35
REMARK   14  A    between atoms: _35  and  _36
REMARK   15  A    between atoms: _35  and  _38
REMARK   16  A    between atoms: _38  and  _39
REMARK   17  A    between atoms: _41  and  _43
REMARK   18  A    between atoms: _43  and  _44
REMARK   19  A    between atoms: _43  and  _46
REMARK   20  A    between atoms: _46  and  _47
REMARK   21  A    between atoms: _49  and  _51
REMARK   22  A    between atoms: _51  and  _52
REMARK   23  A    between atoms: _54  and  _56
REMARK   24  A    between atoms: _56  and  _57
REMARK   25  A    between atoms: _56  and  _59
REMARK   26  A    between atoms: _59  and  _60
REMARK   27  A    between atoms: _63  and  _65
REMARK   28  A    between atoms: _65  and  _66
REMARK   29  A    between atoms: _65  and  _68
REMARK   30  A    between atoms: _68  and  _69
REMARK   31  A    between atoms: _69  and  _70
REMARK   32  A    between atoms: _75  and  _77
REMARK   33  A    between atoms: _77  and  _78
REMARK   34  A    between atoms: _77  and  _80
REMARK   35  A    between atoms: _80  and  _81
REMARK   36  A    between atoms: _81  and  _82
REMARK   37  A    between atoms: _87  and  _89
REMARK   38  A    between atoms: _89  and  _90
REMARK   39  A    between atoms: _89  and  _92
REMARK   40  A    between atoms: _92  and  _93
REMARK   41  A    between atoms: _95  and  _97
REMARK   42  A    between atoms: _97  and  _98
REMARK   43  A    between atoms: _97  and  _100
REMARK   44  A    between atoms: _100  and  _101
REMARK   45  A    between atoms: _104  and  _106
REMARK   46  A    between atoms: _106  and  _107
REMARK   47  A    between atoms: _106  and  _109
REMARK   48  A    between atoms: _112  and  _114
REMARK   49  A    between atoms: _114  and  _115
REMARK   50  A    between atoms: _114  and  _117
REMARK   51  A    between atoms: _117  and  _118
REMARK   52  A    between atoms: _123  and  _125
REMARK   53  A    between atoms: _125  and  _126
REMARK   54  A    between atoms: _125  and  _128
REMARK   55  A    between atoms: _128  and  _129
REMARK   56  A    between atoms: _129  and  _130
REMARK   57  A    between atoms: _130  and  _131
REMARK   58  A    between atoms: _140  and  _142
REMARK   59  A    between atoms: _142  and  _143
REMARK   60  A    between atoms: _142  and  _145
REMARK   61  A    between atoms: _145  and  _146
REMARK   62  A    between atoms: _148  and  _150
REMARK   63  A    between atoms: _150  and  _151
REMARK   64  A    between atoms: _150  and  _153
REMARK   65  A    between atoms: _153  and  _154
REMARK   66  A    between atoms: _156  and  _158
REMARK   67  A    between atoms: _158  and  _159
REMARK   68  A    between atoms: _158  and  _161
REMARK   69  A    between atoms: _161  and  _162
REMARK   70  A    between atoms: _162  and  _163
REMARK   71  A    between atoms: _166  and  _168
REMARK   72  A    between atoms: _168  and  _169
REMARK   73  A    between atoms: _168  and  _171
REMARK   74  A    between atoms: _171  and  _172
REMARK   75  A    between atoms: _175  and  _177
REMARK   76  A    between atoms: _177  and  _178
REMARK   77  A    between atoms: _180  and  _182
REMARK   78  A    between atoms: _182  and  _183
REMARK   79  A    between atoms: _182  and  _185
REMARK   80  A    between atoms: _185  and  _186
REMARK   81  A    between atoms: _189  and  _191
REMARK   82  A    between atoms: _200  and  _203
REMARK   83  A    between atoms: _203  and  _204
REMARK   84  A    between atoms: _211  and  _212
REMARK   85  A    between atoms: _218  and  _220
REMARK   86  A    between atoms: _220  and  _221
REMARK   87  A    between atoms: _220  and  _223
REMARK   88  A    between atoms: _223  and  _224
REMARK   89  A    between atoms: _229  and  _230
REMARK   90  A    between atoms: _232  and  _234
REMARK   91  A    between atoms: _238  and  _240
REMARK   92  A    between atoms: _245  and  _246
REMARK   93  A    between atoms: _252  and  _254
REMARK   94  A    between atoms: _254  and  _255
REMARK                            x       y       z     vdW  Elec       q    Type
REMARK                         _______ _______ _______ _____ _____    ______ ____
ROOT
ATOM      1  CA  SER A   2      43.592  -1.806   2.673  0.00  0.00    +0.178 C 
ENDROOT
BRANCH   1   4
ATOM      2  C   GLN A   1      45.301  -0.213   3.365  0.00  0.00    +0.238 C 
ATOM      3  O   GLN A   1      46.162  -1.087   3.556  0.00  0.00    -0.274 OA
ATOM      4  N   SER A   2      44.048  -0.480   3.000  0.00  0.00    -0.295 N 
ATOM      5  H   SER A   2      43.368   0.305   2.949  0.00  0.00    +0.150 HD
BRANCH   2   6
ATOM      6  CA  GLN A   1      45.649   1.258   3.548  0.00  0.00    +0.145 C 
BRANCH   6   7
ATOM      7  N   GLN A   1      46.249   1.456   4.826  0.00  0.00    -0.238 NA
ATOM      8  H   GLN A   1      47.116   0.933   5.065  0.00  0.00    +0.142 HD
ENDBRANCH   6   7
BRANCH   6   9
ATOM      9  CB  GLN A   1      46.571   1.784   2.408  0.00  0.00    +0.036 C 
BRANCH   9  10
ATOM     10  CG  GLN A   1      45.937   1.793   1.097  0.00  0.00    +0.087 C 
BRANCH  10  11
ATOM     11  CD  GLN A   1      46.148   0.567   0.387  0.00  0.00    +0.219 C 
ATOM     12  OE1 GLN A   1      47.306   0.077   0.302  0.00  0.00    -0.275 OA
ATOM     13  NE2 GLN A   1      45.105  -0.006  -0.174  0.00  0.00    -0.329 N 
ATOM     14 HE21 GLN A   1      44.163   0.426  -0.084  0.00  0.00    +0.145 HD
ATOM     15 HE22 GLN A   1      45.222  -0.891  -0.708  0.00  0.00    +0.145 HD
ENDBRANCH  10  11
ENDBRANCH   9  10
ENDBRANCH   6   9
ENDBRANCH   2   6
ENDBRANCH   1   4
BRANCH   1  16
ATOM     16  C   SER A   2      42.439  -1.684   1.683  0.00  0.00    +0.243 C 
ATOM     17  O   SER A   2      41.599  -0.819   1.846  0.00  0.00    -0.273 OA
ATOM     18  N   THR A   3      42.336  -2.653   0.780  0.00  0.00    -0.296 N 
ATOM     19  H   THR A   3      43.153  -3.274   0.613  0.00  0.00    +0.150 HD
BRANCH  18  20
ATOM     20  CA  THR A   3      41.105  -2.874   0.011  0.00  0.00    +0.164 C 
BRANCH  20  21
ATOM     21  C   THR A   3      40.425  -4.170   0.419  0.00  0.00    +0.229 C 
ATOM     22  O   THR A   3      39.526  -4.669  -0.300  0.00  0.00    -0.286 OA
ENDBRANCH  20  21
BRANCH  20  23
ATOM     23  CB  THR A   3      41.325  -2.798  -1.493  0.00  0.00    +0.136 C 
ATOM     24  CG2 THR A   3      41.665  -1.397  -1.961  0.00  0.00    +0.034 C 
BRANCH  23  25
ATOM     25  OG1 THR A   3      42.407  -3.721  -1.816  0.00  0.00    -0.382 OA
ATOM     26  HG1 THR A   3      43.226  -3.451  -1.329  0.00  0.00    +0.210 HD
ENDBRANCH  23  25
ENDBRANCH  20  23
ENDBRANCH  18  20
ENDBRANCH   1  16
BRANCH   1  27
ATOM     27  CB  SER A   2      43.077  -2.516   3.908  0.00  0.00    +0.166 C 
BRANCH  27  28
ATOM     28  OG  SER A   2      42.684  -3.858   3.654  0.00  0.00    -0.380 OA
ATOM     29  H   SER A   2      42.358  -4.270   4.493  0.00  0.00    +0.211 HD
ENDBRANCH  27  28
ENDBRANCH   1  27
TORSDOF 13
REMARK  Name = ../refined-set-2016/2jdk/2jdk_pocket.pdb
REMARK  94 active torsions:
REMARK  status: ('A' for Active; 'I' for Inactive)
REMARK    1  A    between atoms: _1  and  _3
REMARK    2  A    between atoms: _3  and  _4
REMARK    3  A    between atoms: _3  and  _6
REMARK    4  A    between atoms: _6  and  _7
REMARK    5  A    between atoms: _10  and  _12
REMARK    6  A    between atoms: _12  and  _13
REMARK    7  A    between atoms: _16  and  _18
REMARK    8  A    between atoms: _18  and  _19
REMARK    9  A    between atoms: _22  and  _24
REMARK   10  A    between atoms: _24  and  _25
REMARK   11  A    between atoms: _24  and  _27
REMARK   12  A    between atoms: _27  and  _28
REMARK   13  A    between atoms: _33  and  _35
REMARK   14  A    between atoms: _35  and  _36
REMARK   15  A    between atoms: _35  and  _38
REMARK   16  A    between atoms: _38  and  _39
REMARK   17  A    between atoms: _41  and  _43
REMARK   18  A    between atoms: _43  and  _44
REMARK   19  A    between atoms: _43  and  _46
REMARK   20  A    between atoms: _46  and  _47
REMARK   21  A    between atoms: _49  and  _51
REMARK   22  A    between atoms: _51  and  _52
REMARK   23  A    between atoms: _54  and  _56
REMARK   24  A    between atoms: _56  and  _57
REMARK   25  A    between atoms: _56  and  _59
REMARK   26  A    between atoms: _59  and  _60
REMARK   27  A    between atoms: _63  and  _65
REMARK   28  A    between atoms: _65  and  _66
REMARK   29  A    between atoms: _65  and  _68
REMARK   30  A    between atoms: _68  and  _69
REMARK   31  A    between atoms: _69  and  _70
REMARK   32  A    between atoms: _75  and  _77
REMARK   33  A    between atoms: _77  and  _78
REMARK   34  A    between atoms: _77  and  _80
REMARK   35  A    between atoms: _80  and  _81
REMARK   36  A    between atoms: _81  and  _82
REMARK   37  A    between atoms: _87  and  _89
REMARK   38  A    between atoms: _89  and  _90
REMARK   39  A    between atoms: _89  and  _92
REMARK   40  A    between atoms: _92  and  _93
REMARK   41  A    between atoms: _95  and  _97
REMARK   42  A    between atoms: _97  and  _98
REMARK   43  A    between atoms: _97  and  _100
REMARK   44  A    between atoms: _100  and  _101
REMARK   45  A    between atoms: _104  and  _106
REMARK   46  A    between atoms: _106  and  _107
REMARK   47  A    between atoms: _106  and  _109
REMARK   48  A    between atoms: _112  and  _114
REMARK   49  A    between atoms: _114  and  _115
REMARK   50  A    between atoms: _114  and  _117
REMARK   51  A    between atoms: _117  and  _118
REMARK   52  A    between atoms: _123  and  _125
REMARK   53  A    between atoms: _125  and  _126
REMARK   54  A    between atoms: _125  and  _128
REMARK   55  A    between atoms: _128  and  _129
REMARK   56  A    between atoms: _129  and  _130
REMARK   57  A    between atoms: _130  and  _131
REMARK   58  A    between atoms: _140  and  _142
REMARK   59  A    between atoms: _142  and  _143
REMARK   60  A    between atoms: _142  and  _145
REMARK   61  A    between atoms: _145  and  _146
REMARK   62  A    between atoms: _148  and  _150
REMARK   63  A    between atoms: _150  and  _151
REMARK   64  A    between atoms: _150  and  _153
REMARK   65  A    between atoms: _153  and  _154
REMARK   66  A    between atoms: _156  and  _158
REMARK   67  A    between atoms: _158  and  _159
REMARK   68  A    between atoms: _158  and  _161
REMARK   69  A    between atoms: _161  and  _162
REMARK   70  A    between atoms: _162  and  _163
REMARK   71  A    between atoms: _166  and  _168
REMARK   72  A    between atoms: _168  and  _169
REMARK   73  A    between atoms: _168  and  _171
REMARK   74  A    between atoms: _171  and  _172
REMARK   75  A    between atoms: _175  and  _177
REMARK   76  A    between atoms: _177  and  _178
REMARK   77  A    between atoms: _180  and  _182
REMARK   78  A    between atoms: _182  and  _183
REMARK   79  A    between atoms: _182  and  _185
REMARK   80  A    between atoms: _185  and  _186
REMARK   81  A    between atoms: _189  and  _191
REMARK   82  A    between atoms: _200  and  _203
REMARK   83  A    between atoms: _203  and  _204
REMARK   84  A    between atoms: _211  and  _212
REMARK   85  A    between atoms: _218  and  _220
REMARK   86  A    between atoms: _220  and  _221
REMARK   87  A    between atoms: _220  and  _223
REMARK   88  A    between atoms: _223  and  _224
REMARK   89  A    between atoms: _229  and  _230
REMARK   90  A    between atoms: _232  and  _234
REMARK   91  A    between atoms: _238  and  _240
REMARK   92  A    between atoms: _245  and  _246
REMARK   93  A    between atoms: _252  and  _254
REMARK   94  A    between atoms: _254  and  _255
REMARK                            x       y       z     vdW  Elec       q    Type
REMARK                         _______ _______ _______ _____ _____    ______ ____
ROOT
ATOM      1  C   VAL A   1      43.853  11.917   3.150  0.00  0.00    +0.238 C 
ATOM      2  N   ASN A   2      45.087  11.801   3.652  0.00  0.00    -0.298 N 
ATOM      3  H   ASN A   2      45.331  10.935   4.174  0.00  0.00    +0.150 HD
ATOM      4  O   VAL A   1      43.483  12.877   2.459  0.00  0.00    -0.274 OA
ENDROOT
BRANCH   1   5
ATOM      5  CA  VAL A   1      42.833  10.831   3.529  0.00  0.00    +0.145 C 
BRANCH   5   6
ATOM      6  CB  VAL A   1      42.248  10.199   2.297  0.00  0.00    +0.025 C 
ATOM      7  CG2 VAL A   1      41.246   9.128   2.655  0.00  0.00    +0.002 C 
ATOM      8  CG1 VAL A   1      43.376   9.697   1.327  0.00  0.00    +0.002 C 
ENDBRANCH   5   6
BRANCH   5   9
ATOM      9  N   VAL A   1      41.822  11.457   4.365  0.00  0.00    -0.238 NA
ATOM     10  H   VAL A   1      41.301  12.280   4.001  0.00  0.00    +0.142 HD
ENDBRANCH   5   9
ENDBRANCH   1   5
BRANCH   2  11
ATOM     11  CA  ASN A   2      46.133  12.859   3.498  0.00  0.00    +0.146 C 
BRANCH  11  12
ATOM     12  C   ASN A   2      45.544  14.228   3.692  0.00  0.00    +0.227 C 
ATOM     13  O   ASN A   2      45.863  15.188   2.947  0.00  0.00    -0.286 OA
ENDBRANCH  11  12
BRANCH  11  14
ATOM     14  CB  ASN A   2      46.851  12.750   2.185  0.00  0.00    +0.112 C 
BRANCH  14  15
ATOM     15  CG  ASN A   2      47.710  11.532   2.142  0.00  0.00    +0.222 C 
ATOM     16  OD1 ASN A   2      48.638  11.360   2.986  0.00  0.00    -0.275 OA
ATOM     17  ND2 ASN A   2      47.388  10.634   1.212  0.00  0.00    -0.329 N 
ATOM     18 HD21 ASN A   2      47.910   9.736   1.153  0.00  0.00    +0.145 HD
ATOM     19 HD22 ASN A   2      46.615  10.831   0.545  0.00  0.00    +0.145 HD
ENDBRANCH  14  15
ENDBRANCH  11  14
ENDBRANCH   2  11
TORSDOF 7
REMARK  Name = ../refined-set-2016/2jdk/2jdk_pocket.pdb
REMARK  94 active torsions:
REMARK  status: ('A' for Active; 'I' for Inactive)
REMARK    1  A    between atoms: _1  and  _3
REMARK    2  A    between atoms: _3  and  _4
REMARK    3  A    between atoms: _3  and  _6
REMARK    4  A    between atoms: _6  and  _7
REMARK    5  A    between atoms: _10  and  _12
REMARK    6  A    between atoms: _12  and  _13
REMARK    7  A    between atoms: _16  and  _18
REMARK    8  A    between atoms: _18  and  _19
REMARK    9  A    between atoms: _22  and  _24
REMARK   10  A    between atoms: _24  and  _25
REMARK   11  A    between atoms: _24  and  _27
REMARK   12  A    between atoms: _27  and  _28
REMARK   13  A    between atoms: _33  and  _35
REMARK   14  A    between atoms: _35  and  _36
REMARK   15  A    between atoms: _35  and  _38
REMARK   16  A    between atoms: _38  and  _39
REMARK   17  A    between atoms: _41  and  _43
REMARK   18  A    between atoms: _43  and  _44
REMARK   19  A    between atoms: _43  and  _46
REMARK   20  A    between atoms: _46  and  _47
REMARK   21  A    between atoms: _49  and  _51
REMARK   22  A    between atoms: _51  and  _52
REMARK   23  A    between atoms: _54  and  _56
REMARK   24  A    between atoms: _56  and  _57
REMARK   25  A    between atoms: _56  and  _59
REMARK   26  A    between atoms: _59  and  _60
REMARK   27  A    between atoms: _63  and  _65
REMARK   28  A    between atoms: _65  and  _66
REMARK   29  A    between atoms: _65  and  _68
REMARK   30  A    between atoms: _68  and  _69
REMARK   31  A    between atoms: _69  and  _70
REMARK   32  A    between atoms: _75  and  _77
REMARK   33  A    between atoms: _77  and  _78
REMARK   34  A    between atoms: _77  and  _80
REMARK   35  A    between atoms: _80  and  _81
REMARK   36  A    between atoms: _81  and  _82
REMARK   37  A    between atoms: _87  and  _89
REMARK   38  A    between atoms: _89  and  _90
REMARK   39  A    between atoms: _89  and  _92
REMARK   40  A    between atoms: _92  and  _93
REMARK   41  A    between atoms: _95  and  _97
REMARK   42  A    between atoms: _97  and  _98
REMARK   43  A    between atoms: _97  and  _100
REMARK   44  A    between atoms: _100  and  _101
REMARK   45  A    between atoms: _104  and  _106
REMARK   46  A    between atoms: _106  and  _107
REMARK   47  A    between atoms: _106  and  _109
REMARK   48  A    between atoms: _112  and  _114
REMARK   49  A    between atoms: _114  and  _115
REMARK   50  A    between atoms: _114  and  _117
REMARK   51  A    between atoms: _117  and  _118
REMARK   52  A    between atoms: _123  and  _125
REMARK   53  A    between atoms: _125  and  _126
REMARK   54  A    between atoms: _125  and  _128
REMARK   55  A    between atoms: _128  and  _129
REMARK   56  A    between atoms: _129  and  _130
REMARK   57  A    between atoms: _130  and  _131
REMARK   58  A    between atoms: _140  and  _142
REMARK   59  A    between atoms: _142  and  _143
REMARK   60  A    between atoms: _142  and  _145
REMARK   61  A    between atoms: _145  and  _146
REMARK   62  A    between atoms: _148  and  _150
REMARK   63  A    between atoms: _150  and  _151
REMARK   64  A    between atoms: _150  and  _153
REMARK   65  A    between atoms: _153  and  _154
REMARK   66  A    between atoms: _156  and  _158
REMARK   67  A    between atoms: _158  and  _159
REMARK   68  A    between atoms: _158  and  _161
REMARK   69  A    between atoms: _161  and  _162
REMARK   70  A    between atoms: _162  and  _163
REMARK   71  A    between atoms: _166  and  _168
REMARK   72  A    between atoms: _168  and  _169
REMARK   73  A    between atoms: _168  and  _171
REMARK   74  A    between atoms: _171  and  _172
REMARK   75  A    between atoms: _175  and  _177
REMARK   76  A    between atoms: _177  and  _178
REMARK   77  A    between atoms: _180  and  _182
REMARK   78  A    between atoms: _182  and  _183
REMARK   79  A    between atoms: _182  and  _185
REMARK   80  A    between atoms: _185  and  _186
REMARK   81  A    between atoms: _189  and  _191
REMARK   82  A    between atoms: _200  and  _203
REMARK   83  A    between atoms: _203  and  _204
REMARK   84  A    between atoms: _211  and  _212
REMARK   85  A    between atoms: _218  and  _220
REMARK   86  A    between atoms: _220  and  _221
REMARK   87  A    between atoms: _220  and  _223
REMARK   88  A    between atoms: _223  and  _224
REMARK   89  A    between atoms: _229  and  _230
REMARK   90  A    between atoms: _232  and  _234
REMARK   91  A    between atoms: _238  and  _240
REMARK   92  A    between atoms: _245  and  _246
REMARK   93  A    between atoms: _252  and  _254
REMARK   94  A    between atoms: _254  and  _255
REMARK                            x       y       z     vdW  Elec       q    Type
REMARK                         _______ _______ _______ _____ _____    ______ ____
ROOT
ATOM      1  NE  ARG A   1      39.205  14.553  -0.968  0.00  0.00    -0.265 N 
ATOM      2  HE  ARG A   1      39.568  13.581  -1.040  0.00  0.00    +0.259 HD
ATOM      3  CZ  ARG A   1      37.951  14.782  -1.344  0.00  0.00    +0.342 C 
ATOM      4  NH2 ARG A   1      37.442  16.007  -1.293  0.00  0.00    -0.292 N 
ATOM      5 HH21 ARG A   1      38.026  16.799  -0.956  0.00  0.00    +0.255 HD
ATOM      6 HH22 ARG A   1      36.459  16.175  -1.590  0.00  0.00    +0.255 HD
ATOM      7  NH1 ARG A   1      37.205  13.778  -1.772  0.00  0.00    -0.292 N 
ATOM      8 HH11 ARG A   1      37.600  12.817  -1.813  0.00  0.00    +0.255 HD
ATOM      9 HH12 ARG A   1      36.223  13.949  -2.068  0.00  0.00    +0.255 HD
ENDROOT
BRANCH   1  10
ATOM     10  CD  ARG A   1      40.098  15.580  -0.462  0.00  0.00    +0.174 C 
BRANCH  10  11
ATOM     11  CG  ARG A   1      39.926  15.712   1.033  0.00  0.00    +0.045 C 
BRANCH  11  12
ATOM     12  CB  ARG A   1      41.153  15.317   1.742  0.00  0.00    +0.029 C 
BRANCH  12  13
ATOM     13  CA  ARG A   1      41.187  15.779   3.157  0.00  0.00    +0.133 C 
BRANCH  13  14
ATOM     14  N   ARG A   1      42.488  15.377   3.697  0.00  0.00    -0.239 NA
ATOM     15  H   ARG A   1      42.995  14.561   3.298  0.00  0.00    +0.142 HD
ENDBRANCH  13  14
BRANCH  13  16
ATOM     16  C   ARG A   1      40.077  15.029   3.900  0.00  0.00    +0.224 C 
ATOM     17  O   ARG A   1      40.057  13.793   3.884  0.00  0.00    -0.287 OA
ENDBRANCH  13  16
ENDBRANCH  12  13
ENDBRANCH  11  12
ENDBRANCH  10  11
ENDBRANCH   1  10
TORSDOF 6
REMARK  Name = ../refined-set-2016/2jdk/2jdk_pocket.pdb
REMARK  94 active torsions:
REMARK  status: ('A' for Active; 'I' for Inactive)
REMARK    1  A    between atoms: _1  and  _3
REMARK    2  A    between atoms: _3  and  _4
REMARK    3  A    between atoms: _3  and  _6
REMARK    4  A    between atoms: _6  and  _7
REMARK    5  A    between atoms: _10  and  _12
REMARK    6  A    between atoms: _12  and  _13
REMARK    7  A    between atoms: _16  and  _18
REMARK    8  A    between atoms: _18  and  _19
REMARK    9  A    between atoms: _22  and  _24
REMARK   10  A    between atoms: _24  and  _25
REMARK   11  A    between atoms: _24  and  _27
REMARK   12  A    between atoms: _27  and  _28
REMARK   13  A    between atoms: _33  and  _35
REMARK   14  A    between atoms: _35  and  _36
REMARK   15  A    between atoms: _35  and  _38
REMARK   16  A    between atoms: _38  and  _39
REMARK   17  A    between atoms: _41  and  _43
REMARK   18  A    between atoms: _43  and  _44
REMARK   19  A    between atoms: _43  and  _46
REMARK   20  A    between atoms: _46  and  _47
REMARK   21  A    between atoms: _49  and  _51
REMARK   22  A    between atoms: _51  and  _52
REMARK   23  A    between atoms: _54  and  _56
REMARK   24  A    between atoms: _56  and  _57
REMARK   25  A    between atoms: _56  and  _59
REMARK   26  A    between atoms: _59  and  _60
REMARK   27  A    between atoms: _63  and  _65
REMARK   28  A    between atoms: _65  and  _66
REMARK   29  A    between atoms: _65  and  _68
REMARK   30  A    between atoms: _68  and  _69
REMARK   31  A    between atoms: _69  and  _70
REMARK   32  A    between atoms: _75  and  _77
REMARK   33  A    between atoms: _77  and  _78
REMARK   34  A    between atoms: _77  and  _80
REMARK   35  A    between atoms: _80  and  _81
REMARK   36  A    between atoms: _81  and  _82
REMARK   37  A    between atoms: _87  and  _89
REMARK   38  A    between atoms: _89  and  _90
REMARK   39  A    between atoms: _89  and  _92
REMARK   40  A    between atoms: _92  and  _93
REMARK   41  A    between atoms: _95  and  _97
REMARK   42  A    between atoms: _97  and  _98
REMARK   43  A    between atoms: _97  and  _100
REMARK   44  A    between atoms: _100  and  _101
REMARK   45  A    between atoms: _104  and  _106
REMARK   46  A    between atoms: _106  and  _107
REMARK   47  A    between atoms: _106  and  _109
REMARK   48  A    between atoms: _112  and  _114
REMARK   49  A    between atoms: _114  and  _115
REMARK   50  A    between atoms: _114  and  _117
REMARK   51  A    between atoms: _117  and  _118
REMARK   52  A    between atoms: _123  and  _125
REMARK   53  A    between atoms: _125  and  _126
REMARK   54  A    between atoms: _125  and  _128
REMARK   55  A    between atoms: _128  and  _129
REMARK   56  A    between atoms: _129  and  _130
REMARK   57  A    between atoms: _130  and  _131
REMARK   58  A    between atoms: _140  and  _142
REMARK   59  A    between atoms: _142  and  _143
REMARK   60  A    between atoms: _142  and  _145
REMARK   61  A    between atoms: _145  and  _146
REMARK   62  A    between atoms: _148  and  _150
REMARK   63  A    between atoms: _150  and  _151
REMARK   64  A    between atoms: _150  and  _153
REMARK   65  A    between atoms: _153  and  _154
REMARK   66  A    between atoms: _156  and  _158
REMARK   67  A    between atoms: _158  and  _159
REMARK   68  A    between atoms: _158  and  _161
REMARK   69  A    between atoms: _161  and  _162
REMARK   70  A    between atoms: _162  and  _163
REMARK   71  A    between atoms: _166  and  _168
REMARK   72  A    between atoms: _168  and  _169
REMARK   73  A    between atoms: _168  and  _171
REMARK   74  A    between atoms: _171  and  _172
REMARK   75  A    between atoms: _175  and  _177
REMARK   76  A    between atoms: _177  and  _178
REMARK   77  A    between atoms: _180  and  _182
REMARK   78  A    between atoms: _182  and  _183
REMARK   79  A    between atoms: _182  and  _185
REMARK   80  A    between atoms: _185  and  _186
REMARK   81  A    between atoms: _189  and  _191
REMARK   82  A    between atoms: _200  and  _203
REMARK   83  A    between atoms: _203  and  _204
REMARK   84  A    between atoms: _211  and  _212
REMARK   85  A    between atoms: _218  and  _220
REMARK   86  A    between atoms: _220  and  _221
REMARK   87  A    between atoms: _220  and  _223
REMARK   88  A    between atoms: _223  and  _224
REMARK   89  A    between atoms: _229  and  _230
REMARK   90  A    between atoms: _232  and  _234
REMARK   91  A    between atoms: _238  and  _240
REMARK   92  A    between atoms: _245  and  _246
REMARK   93  A    between atoms: _252  and  _254
REMARK   94  A    between atoms: _254  and  _255
REMARK                            x       y       z     vdW  Elec       q    Type
REMARK                         _______ _______ _______ _____ _____    ______ ____
ROOT
ATOM      1  CA  SER A   1      35.901  12.129   4.184  0.00  0.00    +0.163 C 
ENDROOT
BRANCH   1   2
ATOM      2  N   SER A   1      36.896  12.950   4.845  0.00  0.00    -0.237 NA
ATOM      3  H   SER A   1      37.379  12.583   5.690  0.00  0.00    +0.142 HD
ENDBRANCH   1   2
BRANCH   1   4
ATOM      4  CB  SER A   1      34.492  12.510   4.648  0.00  0.00    +0.227 C 
ATOM      5  OG  SER A   1      34.306  13.003   5.757  0.00  0.00    -0.287 OA
ENDBRANCH   1   4
BRANCH   1   6
ATOM      6  C   SER A   1      36.133  10.678   4.542  0.00  0.00    +0.162 C 
BRANCH   6   7
ATOM      7  O   SER A   1      37.396  10.257   4.002  0.00  0.00    -0.380 OA
ATOM      8  H   SER A   1      37.553   9.307   4.234  0.00  0.00    +0.211 HD
ENDBRANCH   6   7
ENDBRANCH   1   6
TORSDOF 4
REMARK  Name = ../refined-set-2016/2jdk/2jdk_pocket.pdb
REMARK  94 active torsions:
REMARK  status: ('A' for Active; 'I' for Inactive)
REMARK    1  A    between atoms: _1  and  _3
REMARK    2  A    between atoms: _3  and  _4
REMARK    3  A    between atoms: _3  and  _6
REMARK    4  A    between atoms: _6  and  _7
REMARK    5  A    between atoms: _10  and  _12
REMARK    6  A    between atoms: _12  and  _13
REMARK    7  A    between atoms: _16  and  _18
REMARK    8  A    between atoms: _18  and  _19
REMARK    9  A    between atoms: _22  and  _24
REMARK   10  A    between atoms: _24  and  _25
REMARK   11  A    between atoms: _24  and  _27
REMARK   12  A    between atoms: _27  and  _28
REMARK   13  A    between atoms: _33  and  _35
REMARK   14  A    between atoms: _35  and  _36
REMARK   15  A    between atoms: _35  and  _38
REMARK   16  A    between atoms: _38  and  _39
REMARK   17  A    between atoms: _41  and  _43
REMARK   18  A    between atoms: _43  and  _44
REMARK   19  A    between atoms: _43  and  _46
REMARK   20  A    between atoms: _46  and  _47
REMARK   21  A    between atoms: _49  and  _51
REMARK   22  A    between atoms: _51  and  _52
REMARK   23  A    between atoms: _54  and  _56
REMARK   24  A    between atoms: _56  and  _57
REMARK   25  A    between atoms: _56  and  _59
REMARK   26  A    between atoms: _59  and  _60
REMARK   27  A    between atoms: _63  and  _65
REMARK   28  A    between atoms: _65  and  _66
REMARK   29  A    between atoms: _65  and  _68
REMARK   30  A    between atoms: _68  and  _69
REMARK   31  A    between atoms: _69  and  _70
REMARK   32  A    between atoms: _75  and  _77
REMARK   33  A    between atoms: _77  and  _78
REMARK   34  A    between atoms: _77  and  _80
REMARK   35  A    between atoms: _80  and  _81
REMARK   36  A    between atoms: _81  and  _82
REMARK   37  A    between atoms: _87  and  _89
REMARK   38  A    between atoms: _89  and  _90
REMARK   39  A    between atoms: _89  and  _92
REMARK   40  A    between atoms: _92  and  _93
REMARK   41  A    between atoms: _95  and  _97
REMARK   42  A    between atoms: _97  and  _98
REMARK   43  A    between atoms: _97  and  _100
REMARK   44  A    between atoms: _100  and  _101
REMARK   45  A    between atoms: _104  and  _106
REMARK   46  A    between atoms: _106  and  _107
REMARK   47  A    between atoms: _106  and  _109
REMARK   48  A    between atoms: _112  and  _114
REMARK   49  A    between atoms: _114  and  _115
REMARK   50  A    between atoms: _114  and  _117
REMARK   51  A    between atoms: _117  and  _118
REMARK   52  A    between atoms: _123  and  _125
REMARK   53  A    between atoms: _125  and  _126
REMARK   54  A    between atoms: _125  and  _128
REMARK   55  A    between atoms: _128  and  _129
REMARK   56  A    between atoms: _129  and  _130
REMARK   57  A    between atoms: _130  and  _131
REMARK   58  A    between atoms: _140  and  _142
REMARK   59  A    between atoms: _142  and  _143
REMARK   60  A    between atoms: _142  and  _145
REMARK   61  A    between atoms: _145  and  _146
REMARK   62  A    between atoms: _148  and  _150
REMARK   63  A    between atoms: _150  and  _151
REMARK   64  A    between atoms: _150  and  _153
REMARK   65  A    between atoms: _153  and  _154
REMARK   66  A    between atoms: _156  and  _158
REMARK   67  A    between atoms: _158  and  _159
REMARK   68  A    between atoms: _158  and  _161
REMARK   69  A    between atoms: _161  and  _162
REMARK   70  A    between atoms: _162  and  _163
REMARK   71  A    between atoms: _166  and  _168
REMARK   72  A    between atoms: _168  and  _169
REMARK   73  A    between atoms: _168  and  _171
REMARK   74  A    between atoms: _171  and  _172
REMARK   75  A    between atoms: _175  and  _177
REMARK   76  A    between atoms: _177  and  _178
REMARK   77  A    between atoms: _180  and  _182
REMARK   78  A    between atoms: _182  and  _183
REMARK   79  A    between atoms: _182  and  _185
REMARK   80  A    between atoms: _185  and  _186
REMARK   81  A    between atoms: _189  and  _191
REMARK   82  A    between atoms: _200  and  _203
REMARK   83  A    between atoms: _203  and  _204
REMARK   84  A    between atoms: _211  and  _212
REMARK   85  A    between atoms: _218  and  _220
REMARK   86  A    between atoms: _220  and  _221
REMARK   87  A    between atoms: _220  and  _223
REMARK   88  A    between atoms: _223  and  _224
REMARK   89  A    between atoms: _229  and  _230
REMARK   90  A    between atoms: _232  and  _234
REMARK   91  A    between atoms: _238  and  _240
REMARK   92  A    between atoms: _245  and  _246
REMARK   93  A    between atoms: _252  and  _254
REMARK   94  A    between atoms: _254  and  _255
REMARK                            x       y       z     vdW  Elec       q    Type
REMARK                         _______ _______ _______ _____ _____    ______ ____
ROOT
ATOM      1  C   UNK A   6      31.628   5.893  -5.823  0.00  0.00    +0.000 C 
ATOM      2  C   UNK A   6      30.533   5.701  -4.783  0.00  0.00    +0.000 C 
ATOM      3  N   ASN A   7      30.618   6.367  -3.638  0.00  0.00    +0.000 N 
ATOM      4  CA  ASN A   7      29.588   6.268  -2.603  0.00  0.00    +0.000 C 
ATOM      5  C   ASN A   7      29.356   4.835  -2.131  0.00  0.00    +0.000 C 
ATOM      6  O   ASN A   7      28.230   4.497  -1.755  0.00  0.00    +0.000 OA
ATOM      7  N   UNK A   8      30.408   4.048  -1.990  0.00  0.00    +0.000 N 
ATOM      8  C   UNK A   8      30.284   2.817  -1.216  0.00  0.00    +0.000 C 
ATOM      9  C   UNK A   8      31.275   1.715  -1.679  0.00  0.00    +0.000 C 
ATOM     10  C   UNK A   8      32.757   2.037  -1.539  0.00  0.00    +0.000 C 
ATOM     11  O   UNK A   8      33.130   3.129  -1.101  0.00  0.00    +0.000 OA
ATOM     12 CA   UNK A   8      34.419   5.003  -1.749  0.00  0.00    +0.000 Ca
ATOM     13  O   UNK A   8      33.211   4.894  -3.756  0.00  0.00    +0.000 OA
ATOM     14  C   UNK A   8      33.178   4.147  -4.765  0.00  0.00    +0.000 C 
ATOM     15  O   UNK A   8      33.704   3.010  -4.798  0.00  0.00    +0.000 OA
ATOM     16  O   UNK A   8      33.553   1.086  -1.888  0.00  0.00    +0.000 OA
ATOM     17  H   UNK A   8      31.317   4.304  -2.427  0.00  0.00    +0.000 HD
ATOM     18  H   ASN A   7      31.443   6.978  -3.471  0.00  0.00    +0.000 HD
ATOM     19  O   UNK A   6      29.624   4.883  -5.021  0.00  0.00    +0.000 OA
ATOM     20  C   UNK A   8      32.496   4.629  -6.032  0.00  0.00    +0.000 C 
ENDROOT
BRANCH   8  21
ATOM     21  C   UNK A   8      30.317   3.055   0.288  0.00  0.00    +0.000 C 
ATOM     22  O   UNK A   8      29.853   2.186   1.049  0.00  0.00    +0.000 OA
ATOM     23  N   TYR A   9      30.858   4.206   0.738  0.00  0.00    +0.000 N 
ATOM     24  H   TYR A   9      31.292   4.863   0.058  0.00  0.00    +0.000 HD
BRANCH  23  25
ATOM     25  CA  TYR A   9      30.849   4.554   2.163  0.00  0.00    +0.000 C 
BRANCH  25  26
ATOM     26  C   TYR A   9      31.491   3.510   3.046  0.00  0.00    +0.000 C 
ATOM     27  O   TYR A   9      31.225   3.461   4.227  0.00  0.00    +0.000 OA
ATOM     28  N   UNK A  10      32.458   2.741   2.503  0.00  0.00    +0.000 N 
ATOM     29  H   UNK A  10      32.703   2.860   1.499  0.00  0.00    +0.000 HD
BRANCH  28  30
ATOM     30  C   UNK A  10      33.160   1.752   3.295  0.00  0.00    +0.000 C 
ATOM     31  C   UNK A  10      34.665   2.071   3.393  0.00  0.00    +0.000 C 
ATOM     32  O   UNK A  10      35.442   1.231   3.848  0.00  0.00    +0.000 OA
ATOM     33  N   UNK A  11      35.059   3.284   2.989  0.00  0.00    +0.000 N 
ATOM     34  H   UNK A  11      34.368   4.051   2.861  0.00  0.00    +0.000 HD
ATOM     35  C   UNK A  11      36.487   3.511   2.730  0.00  0.00    +0.000 C 
ATOM     36  C   UNK A  11      36.654   4.839   1.995  0.00  0.00    +0.000 C 
ATOM     37  C   UNK A  11      36.006   4.802   0.654  0.00  0.00    +0.000 C 
ATOM     38  O   UNK A  11      35.465   5.854   0.244  0.00  0.00    +0.000 OA
ATOM     39  O   UNK A  11      36.002   3.754  -0.036  0.00  0.00    +0.000 OA
ATOM     40 CA   UNK A  11      35.711   1.591  -0.922  0.00  0.00    +0.000 Ca
ATOM     41  O   UNK A  11      34.372   1.113   0.943  0.00  0.00    +0.000 OA
ATOM     42  C   UNK A  11      33.756   0.153   1.432  0.00  0.00    +0.000 C 
ATOM     43  C   UNK A  10      32.988   0.341   2.729  0.00  0.00    +0.000 C 
BRANCH  35  44
ATOM     44  C   UNK A  11      37.263   3.468   4.064  0.00  0.00    +0.000 C 
ATOM     45  N   ALA A  12      36.662   4.041   5.105  0.00  0.00    +0.000 N 
ATOM     46  H   ALA A  12      35.951   4.781   4.932  0.00  0.00    +0.000 HD
ATOM     47  O   UNK A  11      38.341   2.865   4.143  0.00  0.00    +0.000 OA
BRANCH  45  48
ATOM     48  CA  ALA A  12      36.973   3.659   6.495  0.00  0.00    +0.000 C 
ATOM     49  CB  ALA A  12      37.719   4.711   7.262  0.00  0.00    +0.000 C 
BRANCH  48  50
ATOM     50  C   ALA A  12      35.607   3.390   7.165  0.00  0.00    +0.000 C 
ATOM     51  O   ALA A  12      34.662   4.222   7.017  0.00  0.00    +0.000 OA
ENDBRANCH  48  50
ENDBRANCH  45  48
ENDBRANCH  35  44
BRANCH  42  52
ATOM     52  N   UNK A  11      33.728  -1.037   0.882  0.00  0.00    +0.000 NA
ATOM     53  H   UNK A  11      33.195  -1.807   1.335  0.00  0.00    +0.000 HD
ATOM     54  H   UNK A  11      34.238  -1.211  -0.007  0.00  0.00    +0.000 HD
ENDBRANCH  42  52
ENDBRANCH  28  30
ENDBRANCH  25  26
BRANCH  25  55
ATOM     55  CB  TYR A   9      29.447   4.983   2.659  0.00  0.00    +0.000 C 
BRANCH  55  56
ATOM     56  CG  TYR A   9      29.150   6.416   2.303  0.00  0.00    +0.000 A 
ATOM     57  CD2 TYR A   9      29.464   7.421   3.177  0.00  0.00    +0.000 A 
ATOM     58  CE2 TYR A   9      29.310   8.781   2.871  0.00  0.00    +0.000 A 
ATOM     59  CZ  TYR A   9      28.813   9.094   1.612  0.00  0.00    +0.000 A 
ATOM     60  CE1 TYR A   9      28.448   8.111   0.717  0.00  0.00    +0.000 A 
ATOM     61  CD1 TYR A   9      28.624   6.755   1.057  0.00  0.00    +0.000 A 
BRANCH  59  62
ATOM     62  OH  TYR A   9      28.639  10.425   1.258  0.00  0.00    +0.000 OA
ATOM     63  HH  TYR A   9      28.003  10.852   1.885  0.00  0.00    +0.000 HD
ENDBRANCH  59  62
ENDBRANCH  55  56
ENDBRANCH  25  55
ENDBRANCH  23  25
ENDBRANCH   8  21
BRANCH   1  65
ATOM     64  C   THR A   5      32.004   8.291  -5.917  0.00  0.00    +0.000 C 
ATOM     65  N   UNK A   6      32.451   7.073  -5.572  0.00  0.00    +0.000 N 
ATOM     66  H   UNK A   6      33.385   6.970  -5.125  0.00  0.00    +0.000 HD
ATOM     67  O   THR A   5      30.851   8.482  -6.336  0.00  0.00    +0.000 OA
BRANCH  64  68
ATOM     68  CA  THR A   5      32.893   9.512  -5.803  0.00  0.00    +0.000 C 
BRANCH  68  71
ATOM     69  C   GLY A   4      34.395   9.852  -3.943  0.00  0.00    +0.000 C 
ATOM     70  O   GLY A   4      33.577  10.574  -3.329  0.00  0.00    +0.000 OA
ATOM     71  N   THR A   5      34.126   9.257  -5.087  0.00  0.00    +0.000 N 
ATOM     72  H   THR A   5      34.815   8.588  -5.486  0.00  0.00    +0.000 HD
BRANCH  69  73
ATOM     73  CA  GLY A   4      35.805   9.656  -3.413  0.00  0.00    +0.000 C 
BRANCH  73  76
ATOM     74  C   ASP A   3      36.843   9.827  -1.225  0.00  0.00    +0.000 C 
ATOM     75  O   ASP A   3      37.781  10.520  -1.643  0.00  0.00    +0.000 OA
ATOM     76  N   GLY A   4      35.814   9.449  -1.964  0.00  0.00    +0.000 N 
ATOM     77  H   GLY A   4      34.996   8.996  -1.508  0.00  0.00    +0.000 HD
BRANCH  74  78
ATOM     78  CA  ASP A   3      36.794   9.447   0.266  0.00  0.00    +0.000 C 
BRANCH  78  81
ATOM     79  C   GLU A   2      34.582   9.150   1.277  0.00  0.00    +0.000 C 
ATOM     80  O   GLU A   2      34.471  10.346   1.602  0.00  0.00    +0.000 OA
ATOM     81  N   ASP A   3      35.642   8.656   0.634  0.00  0.00    +0.000 N 
ATOM     82  H   ASP A   3      35.639   7.646   0.384  0.00  0.00    +0.000 HD
BRANCH  79  83
ATOM     83  CA  GLU A   2      33.488   8.154   1.611  0.00  0.00    +0.000 C 
BRANCH  83  86
ATOM     84  C   SER A   1      33.284   7.037   3.804  0.00  0.00    +0.000 C 
ATOM     85  O   SER A   1      33.561   5.915   3.350  0.00  0.00    +0.000 OA
ATOM     86  N   GLU A   2      33.258   8.160   3.060  0.00  0.00    +0.000 N 
ATOM     87  H   GLU A   2      33.067   9.067   3.532  0.00  0.00    +0.000 HD
BRANCH  84  88
ATOM     88  CA  SER A   1      32.965   7.241   5.242  0.00  0.00    +0.000 C 
BRANCH  88  89
ATOM     89  N   SER A   1      32.318   6.038   5.785  0.00  0.00    +0.000 NA
ATOM     90  H   SER A   1      32.505   5.108   5.358  0.00  0.00    +0.000 HD
ENDBRANCH  88  89
BRANCH  88  91
ATOM     91  CB  SER A   1      34.219   7.592   6.055  0.00  0.00    +0.000 C 
BRANCH  91  92
ATOM     92  OG  SER A   1      35.245   6.624   5.888  0.00  0.00    +0.000 OA
ATOM     93  H   SER A   1      34.916   5.740   6.190  0.00  0.00    +0.000 HD
ENDBRANCH  91  92
ENDBRANCH  88  91
ENDBRANCH  84  88
ENDBRANCH  83  86
BRANCH  83  94
ATOM     94  CB  GLU A   2      32.189   8.496   0.886  0.00  0.00    +0.000 C 
BRANCH  94  95
ATOM     95  CG  GLU A   2      32.354   8.553  -0.657  0.00  0.00    +0.000 C 
BRANCH  95  96
ATOM     96  CD  GLU A   2      32.945   7.273  -1.210  0.00  0.00    +0.000 C 
ATOM     97  OE2 GLU A   2      32.432   6.165  -0.890  0.00  0.00    +0.000 OA
ATOM     98  OE1 GLU A   2      33.933   7.354  -1.966  0.00  0.00    +0.000 OA
ENDBRANCH  95  96
ENDBRANCH  94  95
ENDBRANCH  83  94
ENDBRANCH  79  83
ENDBRANCH  78  81
BRANCH  78  99
ATOM     99  CB  ASP A   3      38.098   8.751   0.672  0.00  0.00    +0.000 C 
BRANCH  99 100
ATOM    100  CG  ASP A   3      38.413   7.476  -0.096  0.00  0.00    +0.000 C 
ATOM    101  OD2 ASP A   3      39.213   6.673   0.440  0.00  0.00    +0.000 OA
ATOM    102  OD1 ASP A   3      37.894   7.305  -1.203  0.00  0.00    +0.000 OA
ENDBRANCH  99 100
ENDBRANCH  78  99
ENDBRANCH  74  78
ENDBRANCH  73  76
ENDBRANCH  69  73
ENDBRANCH  68  71
BRANCH  68 103
ATOM    103  CB  THR A   5      33.209  10.000  -7.240  0.00  0.00    +0.000 C 
ATOM    104  CG2 THR A   5      33.950  11.322  -7.233  0.00  0.00    +0.000 C 
BRANCH 103 105
ATOM    105  OG1 THR A   5      34.008   8.991  -7.883  0.00  0.00    +0.000 OA
ATOM    106  HG1 THR A   5      33.502   8.140  -7.912  0.00  0.00    +0.000 HD
ENDBRANCH 103 105
ENDBRANCH  68 103
ENDBRANCH  64  68
ENDBRANCH   1  65
BRANCH   4 107
ATOM    107  CB  ASN A   7      28.279   6.960  -3.063  0.00  0.00    +0.000 C 
BRANCH 107 108
ATOM    108  CG  ASN A   7      28.481   8.444  -3.153  0.00  0.00    +0.000 C 
ATOM    109  OD1 ASN A   7      29.415   9.005  -2.574  0.00  0.00    +0.000 OA
ATOM    110  ND2 ASN A   7      27.593   9.099  -3.892  0.00  0.00    +0.000 N 
ATOM    111 HD21 ASN A   7      27.668  10.130  -4.002  0.00  0.00    +0.000 HD
ATOM    112 HD22 ASN A   7      26.823   8.580  -4.361  0.00  0.00    +0.000 HD
ENDBRANCH 107 108
ENDBRANCH   4 107
TORSDOF 33
REMARK  Name = ../refined-set-2016/2jdk/2jdk_pocket.pdb
REMARK  94 active torsions:
REMARK  status: ('A' for Active; 'I' for Inactive)
REMARK    1  A    between atoms: _1  and  _3
REMARK    2  A    between atoms: _3  and  _4
REMARK    3  A    between atoms: _3  and  _6
REMARK    4  A    between atoms: _6  and  _7
REMARK    5  A    between atoms: _10  and  _12
REMARK    6  A    between atoms: _12  and  _13
REMARK    7  A    between atoms: _16  and  _18
REMARK    8  A    between atoms: _18  and  _19
REMARK    9  A    between atoms: _22  and  _24
REMARK   10  A    between atoms: _24  and  _25
REMARK   11  A    between atoms: _24  and  _27
REMARK   12  A    between atoms: _27  and  _28
REMARK   13  A    between atoms: _33  and  _35
REMARK   14  A    between atoms: _35  and  _36
REMARK   15  A    between atoms: _35  and  _38
REMARK   16  A    between atoms: _38  and  _39
REMARK   17  A    between atoms: _41  and  _43
REMARK   18  A    between atoms: _43  and  _44
REMARK   19  A    between atoms: _43  and  _46
REMARK   20  A    between atoms: _46  and  _47
REMARK   21  A    between atoms: _49  and  _51
REMARK   22  A    between atoms: _51  and  _52
REMARK   23  A    between atoms: _54  and  _56
REMARK   24  A    between atoms: _56  and  _57
REMARK   25  A    between atoms: _56  and  _59
REMARK   26  A    between atoms: _59  and  _60
REMARK   27  A    between atoms: _63  and  _65
REMARK   28  A    between atoms: _65  and  _66
REMARK   29  A    between atoms: _65  and  _68
REMARK   30  A    between atoms: _68  and  _69
REMARK   31  A    between atoms: _69  and  _70
REMARK   32  A    between atoms: _75  and  _77
REMARK   33  A    between atoms: _77  and  _78
REMARK   34  A    between atoms: _77  and  _80
REMARK   35  A    between atoms: _80  and  _81
REMARK   36  A    between atoms: _81  and  _82
REMARK   37  A    between atoms: _87  and  _89
REMARK   38  A    between atoms: _89  and  _90
REMARK   39  A    between atoms: _89  and  _92
REMARK   40  A    between atoms: _92  and  _93
REMARK   41  A    between atoms: _95  and  _97
REMARK   42  A    between atoms: _97  and  _98
REMARK   43  A    between atoms: _97  and  _100
REMARK   44  A    between atoms: _100  and  _101
REMARK   45  A    between atoms: _104  and  _106
REMARK   46  A    between atoms: _106  and  _107
REMARK   47  A    between atoms: _106  and  _109
REMARK   48  A    between atoms: _112  and  _114
REMARK   49  A    between atoms: _114  and  _115
REMARK   50  A    between atoms: _114  and  _117
REMARK   51  A    between atoms: _117  and  _118
REMARK   52  A    between atoms: _123  and  _125
REMARK   53  A    between atoms: _125  and  _126
REMARK   54  A    between atoms: _125  and  _128
REMARK   55  A    between atoms: _128  and  _129
REMARK   56  A    between atoms: _129  and  _130
REMARK   57  A    between atoms: _130  and  _131
REMARK   58  A    between atoms: _140  and  _142
REMARK   59  A    between atoms: _142  and  _143
REMARK   60  A    between atoms: _142  and  _145
REMARK   61  A    between atoms: _145  and  _146
REMARK   62  A    between atoms: _148  and  _150
REMARK   63  A    between atoms: _150  and  _151
REMARK   64  A    between atoms: _150  and  _153
REMARK   65  A    between atoms: _153  and  _154
REMARK   66  A    between atoms: _156  and  _158
REMARK   67  A    between atoms: _158  and  _159
REMARK   68  A    between atoms: _158  and  _161
REMARK   69  A    between atoms: _161  and  _162
REMARK   70  A    between atoms: _162  and  _163
REMARK   71  A    between atoms: _166  and  _168
REMARK   72  A    between atoms: _168  and  _169
REMARK   73  A    between atoms: _168  and  _171
REMARK   74  A    between atoms: _171  and  _172
REMARK   75  A    between atoms: _175  and  _177
REMARK   76  A    between atoms: _177  and  _178
REMARK   77  A    between atoms: _180  and  _182
REMARK   78  A    between atoms: _182  and  _183
REMARK   79  A    between atoms: _182  and  _185
REMARK   80  A    between atoms: _185  and  _186
REMARK   81  A    between atoms: _189  and  _191
REMARK   82  A    between atoms: _200  and  _203
REMARK   83  A    between atoms: _203  and  _204
REMARK   84  A    between atoms: _211  and  _212
REMARK   85  A    between atoms: _218  and  _220
REMARK   86  A    between atoms: _220  and  _221
REMARK   87  A    between atoms: _220  and  _223
REMARK   88  A    between atoms: _223  and  _224
REMARK   89  A    between atoms: _229  and  _230
REMARK   90  A    between atoms: _232  and  _234
REMARK   91  A    between atoms: _238  and  _240
REMARK   92  A    between atoms: _245  and  _246
REMARK   93  A    between atoms: _252  and  _254
REMARK   94  A    between atoms: _254  and  _255
REMARK                            x       y       z     vdW  Elec       q    Type
REMARK                         _______ _______ _______ _____ _____    ______ ____
ROOT
ATOM      1  O   HOH     1      41.272  -2.047  -5.738  0.00  0.00    +0.000 OA
ENDROOT
TORSDOF 0
REMARK  Name = ../refined-set-2016/2jdk/2jdk_pocket.pdb
REMARK  94 active torsions:
REMARK  status: ('A' for Active; 'I' for Inactive)
REMARK    1  A    between atoms: _1  and  _3
REMARK    2  A    between atoms: _3  and  _4
REMARK    3  A    between atoms: _3  and  _6
REMARK    4  A    between atoms: _6  and  _7
REMARK    5  A    between atoms: _10  and  _12
REMARK    6  A    between atoms: _12  and  _13
REMARK    7  A    between atoms: _16  and  _18
REMARK    8  A    between atoms: _18  and  _19
REMARK    9  A    between atoms: _22  and  _24
REMARK   10  A    between atoms: _24  and  _25
REMARK   11  A    between atoms: _24  and  _27
REMARK   12  A    between atoms: _27  and  _28
REMARK   13  A    between atoms: _33  and  _35
REMARK   14  A    between atoms: _35  and  _36
REMARK   15  A    between atoms: _35  and  _38
REMARK   16  A    between atoms: _38  and  _39
REMARK   17  A    between atoms: _41  and  _43
REMARK   18  A    between atoms: _43  and  _44
REMARK   19  A    between atoms: _43  and  _46
REMARK   20  A    between atoms: _46  and  _47
REMARK   21  A    between atoms: _49  and  _51
REMARK   22  A    between atoms: _51  and  _52
REMARK   23  A    between atoms: _54  and  _56
REMARK   24  A    between atoms: _56  and  _57
REMARK   25  A    between atoms: _56  and  _59
REMARK   26  A    between atoms: _59  and  _60
REMARK   27  A    between atoms: _63  and  _65
REMARK   28  A    between atoms: _65  and  _66
REMARK   29  A    between atoms: _65  and  _68
REMARK   30  A    between atoms: _68  and  _69
REMARK   31  A    between atoms: _69  and  _70
REMARK   32  A    between atoms: _75  and  _77
REMARK   33  A    between atoms: _77  and  _78
REMARK   34  A    between atoms: _77  and  _80
REMARK   35  A    between atoms: _80  and  _81
REMARK   36  A    between atoms: _81  and  _82
REMARK   37  A    between atoms: _87  and  _89
REMARK   38  A    between atoms: _89  and  _90
REMARK   39  A    between atoms: _89  and  _92
REMARK   40  A    between atoms: _92  and  _93
REMARK   41  A    between atoms: _95  and  _97
REMARK   42  A    between atoms: _97  and  _98
REMARK   43  A    between atoms: _97  and  _100
REMARK   44  A    between atoms: _100  and  _101
REMARK   45  A    between atoms: _104  and  _106
REMARK   46  A    between atoms: _106  and  _107
REMARK   47  A    between atoms: _106  and  _109
REMARK   48  A    between atoms: _112  and  _114
REMARK   49  A    between atoms: _114  and  _115
REMARK   50  A    between atoms: _114  and  _117
REMARK   51  A    between atoms: _117  and  _118
REMARK   52  A    between atoms: _123  and  _125
REMARK   53  A    between atoms: _125  and  _126
REMARK   54  A    between atoms: _125  and  _128
REMARK   55  A    between atoms: _128  and  _129
REMARK   56  A    between atoms: _129  and  _130
REMARK   57  A    between atoms: _130  and  _131
REMARK   58  A    between atoms: _140  and  _142
REMARK   59  A    between atoms: _142  and  _143
REMARK   60  A    between atoms: _142  and  _145
REMARK   61  A    between atoms: _145  and  _146
REMARK   62  A    between atoms: _148  and  _150
REMARK   63  A    between atoms: _150  and  _151
REMARK   64  A    between atoms: _150  and  _153
REMARK   65  A    between atoms: _153  and  _154
REMARK   66  A    between atoms: _156  and  _158
REMARK   67  A    between atoms: _158  and  _159
REMARK   68  A    between atoms: _158  and  _161
REMARK   69  A    between atoms: _161  and  _162
REMARK   70  A    between atoms: _162  and  _163
REMARK   71  A    between atoms: _166  and  _168
REMARK   72  A    between atoms: _168  and  _169
REMARK   73  A    between atoms: _168  and  _171
REMARK   74  A    between atoms: _171  and  _172
REMARK   75  A    between atoms: _175  and  _177
REMARK   76  A    between atoms: _177  and  _178
REMARK   77  A    between atoms: _180  and  _182
REMARK   78  A    between atoms: _182  and  _183
REMARK   79  A    between atoms: _182  and  _185
REMARK   80  A    between atoms: _185  and  _186
REMARK   81  A    between atoms: _189  and  _191
REMARK   82  A    between atoms: _200  and  _203
REMARK   83  A    between atoms: _203  and  _204
REMARK   84  A    between atoms: _211  and  _212
REMARK   85  A    between atoms: _218  and  _220
REMARK   86  A    between atoms: _220  and  _221
REMARK   87  A    between atoms: _220  and  _223
REMARK   88  A    between atoms: _223  and  _224
REMARK   89  A    between atoms: _229  and  _230
REMARK   90  A    between atoms: _232  and  _234
REMARK   91  A    between atoms: _238  and  _240
REMARK   92  A    between atoms: _245  and  _246
REMARK   93  A    between atoms: _252  and  _254
REMARK   94  A    between atoms: _254  and  _255
REMARK                            x       y       z     vdW  Elec       q    Type
REMARK                         _______ _______ _______ _____ _____    ______ ____
ROOT
ATOM      1  O   HOH     1      28.265   0.153  -2.723  0.00  0.00    +0.000 OA
ENDROOT
TORSDOF 0
REMARK  Name = ../refined-set-2016/2jdk/2jdk_pocket.pdb
REMARK  94 active torsions:
REMARK  status: ('A' for Active; 'I' for Inactive)
REMARK    1  A    between atoms: _1  and  _3
REMARK    2  A    between atoms: _3  and  _4
REMARK    3  A    between atoms: _3  and  _6
REMARK    4  A    between atoms: _6  and  _7
REMARK    5  A    between atoms: _10  and  _12
REMARK    6  A    between atoms: _12  and  _13
REMARK    7  A    between atoms: _16  and  _18
REMARK    8  A    between atoms: _18  and  _19
REMARK    9  A    between atoms: _22  and  _24
REMARK   10  A    between atoms: _24  and  _25
REMARK   11  A    between atoms: _24  and  _27
REMARK   12  A    between atoms: _27  and  _28
REMARK   13  A    between atoms: _33  and  _35
REMARK   14  A    between atoms: _35  and  _36
REMARK   15  A    between atoms: _35  and  _38
REMARK   16  A    between atoms: _38  and  _39
REMARK   17  A    between atoms: _41  and  _43
REMARK   18  A    between atoms: _43  and  _44
REMARK   19  A    between atoms: _43  and  _46
REMARK   20  A    between atoms: _46  and  _47
REMARK   21  A    between atoms: _49  and  _51
REMARK   22  A    between atoms: _51  and  _52
REMARK   23  A    between atoms: _54  and  _56
REMARK   24  A    between atoms: _56  and  _57
REMARK   25  A    between atoms: _56  and  _59
REMARK   26  A    between atoms: _59  and  _60
REMARK   27  A    between atoms: _63  and  _65
REMARK   28  A    between atoms: _65  and  _66
REMARK   29  A    between atoms: _65  and  _68
REMARK   30  A    between atoms: _68  and  _69
REMARK   31  A    between atoms: _69  and  _70
REMARK   32  A    between atoms: _75  and  _77
REMARK   33  A    between atoms: _77  and  _78
REMARK   34  A    between atoms: _77  and  _80
REMARK   35  A    between atoms: _80  and  _81
REMARK   36  A    between atoms: _81  and  _82
REMARK   37  A    between atoms: _87  and  _89
REMARK   38  A    between atoms: _89  and  _90
REMARK   39  A    between atoms: _89  and  _92
REMARK   40  A    between atoms: _92  and  _93
REMARK   41  A    between atoms: _95  and  _97
REMARK   42  A    between atoms: _97  and  _98
REMARK   43  A    between atoms: _97  and  _100
REMARK   44  A    between atoms: _100  and  _101
REMARK   45  A    between atoms: _104  and  _106
REMARK   46  A    between atoms: _106  and  _107
REMARK   47  A    between atoms: _106  and  _109
REMARK   48  A    between atoms: _112  and  _114
REMARK   49  A    between atoms: _114  and  _115
REMARK   50  A    between atoms: _114  and  _117
REMARK   51  A    between atoms: _117  and  _118
REMARK   52  A    between atoms: _123  and  _125
REMARK   53  A    between atoms: _125  and  _126
REMARK   54  A    between atoms: _125  and  _128
REMARK   55  A    between atoms: _128  and  _129
REMARK   56  A    between atoms: _129  and  _130
REMARK   57  A    between atoms: _130  and  _131
REMARK   58  A    between atoms: _140  and  _142
REMARK   59  A    between atoms: _142  and  _143
REMARK   60  A    between atoms: _142  and  _145
REMARK   61  A    between atoms: _145  and  _146
REMARK   62  A    between atoms: _148  and  _150
REMARK   63  A    between atoms: _150  and  _151
REMARK   64  A    between atoms: _150  and  _153
REMARK   65  A    between atoms: _153  and  _154
REMARK   66  A    between atoms: _156  and  _158
REMARK   67  A    between atoms: _158  and  _159
REMARK   68  A    between atoms: _158  and  _161
REMARK   69  A    between atoms: _161  and  _162
REMARK   70  A    between atoms: _162  and  _163
REMARK   71  A    between atoms: _166  and  _168
REMARK   72  A    between atoms: _168  and  _169
REMARK   73  A    between atoms: _168  and  _171
REMARK   74  A    between atoms: _171  and  _172
REMARK   75  A    between atoms: _175  and  _177
REMARK   76  A    between atoms: _177  and  _178
REMARK   77  A    between atoms: _180  and  _182
REMARK   78  A    between atoms: _182  and  _183
REMARK   79  A    between atoms: _182  and  _185
REMARK   80  A    between atoms: _185  and  _186
REMARK   81  A    between atoms: _189  and  _191
REMARK   82  A    between atoms: _200  and  _203
REMARK   83  A    between atoms: _203  and  _204
REMARK   84  A    between atoms: _211  and  _212
REMARK   85  A    between atoms: _218  and  _220
REMARK   86  A    between atoms: _220  and  _221
REMARK   87  A    between atoms: _220  and  _223
REMARK   88  A    between atoms: _223  and  _224
REMARK   89  A    between atoms: _229  and  _230
REMARK   90  A    between atoms: _232  and  _234
REMARK   91  A    between atoms: _238  and  _240
REMARK   92  A    between atoms: _245  and  _246
REMARK   93  A    between atoms: _252  and  _254
REMARK   94  A    between atoms: _254  and  _255
REMARK                            x       y       z     vdW  Elec       q    Type
REMARK                         _______ _______ _______ _____ _____    ______ ____
ROOT
ATOM      1  O   HOH     1      38.944  -2.611  -4.389  0.00  0.00    +0.000 OA
ENDROOT
TORSDOF 0
REMARK  Name = ../refined-set-2016/2jdk/2jdk_pocket.pdb
REMARK  94 active torsions:
REMARK  status: ('A' for Active; 'I' for Inactive)
REMARK    1  A    between atoms: _1  and  _3
REMARK    2  A    between atoms: _3  and  _4
REMARK    3  A    between atoms: _3  and  _6
REMARK    4  A    between atoms: _6  and  _7
REMARK    5  A    between atoms: _10  and  _12
REMARK    6  A    between atoms: _12  and  _13
REMARK    7  A    between atoms: _16  and  _18
REMARK    8  A    between atoms: _18  and  _19
REMARK    9  A    between atoms: _22  and  _24
REMARK   10  A    between atoms: _24  and  _25
REMARK   11  A    between atoms: _24  and  _27
REMARK   12  A    between atoms: _27  and  _28
REMARK   13  A    between atoms: _33  and  _35
REMARK   14  A    between atoms: _35  and  _36
REMARK   15  A    between atoms: _35  and  _38
REMARK   16  A    between atoms: _38  and  _39
REMARK   17  A    between atoms: _41  and  _43
REMARK   18  A    between atoms: _43  and  _44
REMARK   19  A    between atoms: _43  and  _46
REMARK   20  A    between atoms: _46  and  _47
REMARK   21  A    between atoms: _49  and  _51
REMARK   22  A    between atoms: _51  and  _52
REMARK   23  A    between atoms: _54  and  _56
REMARK   24  A    between atoms: _56  and  _57
REMARK   25  A    between atoms: _56  and  _59
REMARK   26  A    between atoms: _59  and  _60
REMARK   27  A    between atoms: _63  and  _65
REMARK   28  A    between atoms: _65  and  _66
REMARK   29  A    between atoms: _65  and  _68
REMARK   30  A    between atoms: _68  and  _69
REMARK   31  A    between atoms: _69  and  _70
REMARK   32  A    between atoms: _75  and  _77
REMARK   33  A    between atoms: _77  and  _78
REMARK   34  A    between atoms: _77  and  _80
REMARK   35  A    between atoms: _80  and  _81
REMARK   36  A    between atoms: _81  and  _82
REMARK   37  A    between atoms: _87  and  _89
REMARK   38  A    between atoms: _89  and  _90
REMARK   39  A    between atoms: _89  and  _92
REMARK   40  A    between atoms: _92  and  _93
REMARK   41  A    between atoms: _95  and  _97
REMARK   42  A    between atoms: _97  and  _98
REMARK   43  A    between atoms: _97  and  _100
REMARK   44  A    between atoms: _100  and  _101
REMARK   45  A    between atoms: _104  and  _106
REMARK   46  A    between atoms: _106  and  _107
REMARK   47  A    between atoms: _106  and  _109
REMARK   48  A    between atoms: _112  and  _114
REMARK   49  A    between atoms: _114  and  _115
REMARK   50  A    between atoms: _114  and  _117
REMARK   51  A    between atoms: _117  and  _118
REMARK   52  A    between atoms: _123  and  _125
REMARK   53  A    between atoms: _125  and  _126
REMARK   54  A    between atoms: _125  and  _128
REMARK   55  A    between atoms: _128  and  _129
REMARK   56  A    between atoms: _129  and  _130
REMARK   57  A    between atoms: _130  and  _131
REMARK   58  A    between atoms: _140  and  _142
REMARK   59  A    between atoms: _142  and  _143
REMARK   60  A    between atoms: _142  and  _145
REMARK   61  A    between atoms: _145  and  _146
REMARK   62  A    between atoms: _148  and  _150
REMARK   63  A    between atoms: _150  and  _151
REMARK   64  A    between atoms: _150  and  _153
REMARK   65  A    between atoms: _153  and  _154
REMARK   66  A    between atoms: _156  and  _158
REMARK   67  A    between atoms: _158  and  _159
REMARK   68  A    between atoms: _158  and  _161
REMARK   69  A    between atoms: _161  and  _162
REMARK   70  A    between atoms: _162  and  _163
REMARK   71  A    between atoms: _166  and  _168
REMARK   72  A    between atoms: _168  and  _169
REMARK   73  A    between atoms: _168  and  _171
REMARK   74  A    between atoms: _171  and  _172
REMARK   75  A    between atoms: _175  and  _177
REMARK   76  A    between atoms: _177  and  _178
REMARK   77  A    between atoms: _180  and  _182
REMARK   78  A    between atoms: _182  and  _183
REMARK   79  A    between atoms: _182  and  _185
REMARK   80  A    between atoms: _185  and  _186
REMARK   81  A    between atoms: _189  and  _191
REMARK   82  A    between atoms: _200  and  _203
REMARK   83  A    between atoms: _203  and  _204
REMARK   84  A    between atoms: _211  and  _212
REMARK   85  A    between atoms: _218  and  _220
REMARK   86  A    between atoms: _220  and  _221
REMARK   87  A    between atoms: _220  and  _223
REMARK   88  A    between atoms: _223  and  _224
REMARK   89  A    between atoms: _229  and  _230
REMARK   90  A    between atoms: _232  and  _234
REMARK   91  A    between atoms: _238  and  _240
REMARK   92  A    between atoms: _245  and  _246
REMARK   93  A    between atoms: _252  and  _254
REMARK   94  A    between atoms: _254  and  _255
REMARK                            x       y       z     vdW  Elec       q    Type
REMARK                         _______ _______ _______ _____ _____    ______ ____
ROOT
ATOM      1  O   HOH     1      43.114  -0.229  -5.555  0.00  0.00    +0.000 OA
ENDROOT
TORSDOF 0
REMARK  Name = ../refined-set-2016/2jdk/2jdk_pocket.pdb
REMARK  94 active torsions:
REMARK  status: ('A' for Active; 'I' for Inactive)
REMARK    1  A    between atoms: _1  and  _3
REMARK    2  A    between atoms: _3  and  _4
REMARK    3  A    between atoms: _3  and  _6
REMARK    4  A    between atoms: _6  and  _7
REMARK    5  A    between atoms: _10  and  _12
REMARK    6  A    between atoms: _12  and  _13
REMARK    7  A    between atoms: _16  and  _18
REMARK    8  A    between atoms: _18  and  _19
REMARK    9  A    between atoms: _22  and  _24
REMARK   10  A    between atoms: _24  and  _25
REMARK   11  A    between atoms: _24  and  _27
REMARK   12  A    between atoms: _27  and  _28
REMARK   13  A    between atoms: _33  and  _35
REMARK   14  A    between atoms: _35  and  _36
REMARK   15  A    between atoms: _35  and  _38
REMARK   16  A    between atoms: _38  and  _39
REMARK   17  A    between atoms: _41  and  _43
REMARK   18  A    between atoms: _43  and  _44
REMARK   19  A    between atoms: _43  and  _46
REMARK   20  A    between atoms: _46  and  _47
REMARK   21  A    between atoms: _49  and  _51
REMARK   22  A    between atoms: _51  and  _52
REMARK   23  A    between atoms: _54  and  _56
REMARK   24  A    between atoms: _56  and  _57
REMARK   25  A    between atoms: _56  and  _59
REMARK   26  A    between atoms: _59  and  _60
REMARK   27  A    between atoms: _63  and  _65
REMARK   28  A    between atoms: _65  and  _66
REMARK   29  A    between atoms: _65  and  _68
REMARK   30  A    between atoms: _68  and  _69
REMARK   31  A    between atoms: _69  and  _70
REMARK   32  A    between atoms: _75  and  _77
REMARK   33  A    between atoms: _77  and  _78
REMARK   34  A    between atoms: _77  and  _80
REMARK   35  A    between atoms: _80  and  _81
REMARK   36  A    between atoms: _81  and  _82
REMARK   37  A    between atoms: _87  and  _89
REMARK   38  A    between atoms: _89  and  _90
REMARK   39  A    between atoms: _89  and  _92
REMARK   40  A    between atoms: _92  and  _93
REMARK   41  A    between atoms: _95  and  _97
REMARK   42  A    between atoms: _97  and  _98
REMARK   43  A    between atoms: _97  and  _100
REMARK   44  A    between atoms: _100  and  _101
REMARK   45  A    between atoms: _104  and  _106
REMARK   46  A    between atoms: _106  and  _107
REMARK   47  A    between atoms: _106  and  _109
REMARK   48  A    between atoms: _112  and  _114
REMARK   49  A    between atoms: _114  and  _115
REMARK   50  A    between atoms: _114  and  _117
REMARK   51  A    between atoms: _117  and  _118
REMARK   52  A    between atoms: _123  and  _125
REMARK   53  A    between atoms: _125  and  _126
REMARK   54  A    between atoms: _125  and  _128
REMARK   55  A    between atoms: _128  and  _129
REMARK   56  A    between atoms: _129  and  _130
REMARK   57  A    between atoms: _130  and  _131
REMARK   58  A    between atoms: _140  and  _142
REMARK   59  A    between atoms: _142  and  _143
REMARK   60  A    between atoms: _142  and  _145
REMARK   61  A    between atoms: _145  and  _146
REMARK   62  A    between atoms: _148  and  _150
REMARK   63  A    between atoms: _150  and  _151
REMARK   64  A    between atoms: _150  and  _153
REMARK   65  A    between atoms: _153  and  _154
REMARK   66  A    between atoms: _156  and  _158
REMARK   67  A    between atoms: _158  and  _159
REMARK   68  A    between atoms: _158  and  _161
REMARK   69  A    between atoms: _161  and  _162
REMARK   70  A    between atoms: _162  and  _163
REMARK   71  A    between atoms: _166  and  _168
REMARK   72  A    between atoms: _168  and  _169
REMARK   73  A    between atoms: _168  and  _171
REMARK   74  A    between atoms: _171  and  _172
REMARK   75  A    between atoms: _175  and  _177
REMARK   76  A    between atoms: _177  and  _178
REMARK   77  A    between atoms: _180  and  _182
REMARK   78  A    between atoms: _182  and  _183
REMARK   79  A    between atoms: _182  and  _185
REMARK   80  A    between atoms: _185  and  _186
REMARK   81  A    between atoms: _189  and  _191
REMARK   82  A    between atoms: _200  and  _203
REMARK   83  A    between atoms: _203  and  _204
REMARK   84  A    between atoms: _211  and  _212
REMARK   85  A    between atoms: _218  and  _220
REMARK   86  A    between atoms: _220  and  _221
REMARK   87  A    between atoms: _220  and  _223
REMARK   88  A    between atoms: _223  and  _224
REMARK   89  A    between atoms: _229  and  _230
REMARK   90  A    between atoms: _232  and  _234
REMARK   91  A    between atoms: _238  and  _240
REMARK   92  A    between atoms: _245  and  _246
REMARK   93  A    between atoms: _252  and  _254
REMARK   94  A    between atoms: _254  and  _255
REMARK                            x       y       z     vdW  Elec       q    Type
REMARK                         _______ _______ _______ _____ _____    ______ ____
ROOT
ATOM      1  O   HOH     1      42.529   2.019   2.600  0.00  0.00    +0.000 OA
ENDROOT
TORSDOF 0
REMARK  Name = ../refined-set-2016/2jdk/2jdk_pocket.pdb
REMARK  94 active torsions:
REMARK  status: ('A' for Active; 'I' for Inactive)
REMARK    1  A    between atoms: _1  and  _3
REMARK    2  A    between atoms: _3  and  _4
REMARK    3  A    between atoms: _3  and  _6
REMARK    4  A    between atoms: _6  and  _7
REMARK    5  A    between atoms: _10  and  _12
REMARK    6  A    between atoms: _12  and  _13
REMARK    7  A    between atoms: _16  and  _18
REMARK    8  A    between atoms: _18  and  _19
REMARK    9  A    between atoms: _22  and  _24
REMARK   10  A    between atoms: _24  and  _25
REMARK   11  A    between atoms: _24  and  _27
REMARK   12  A    between atoms: _27  and  _28
REMARK   13  A    between atoms: _33  and  _35
REMARK   14  A    between atoms: _35  and  _36
REMARK   15  A    between atoms: _35  and  _38
REMARK   16  A    between atoms: _38  and  _39
REMARK   17  A    between atoms: _41  and  _43
REMARK   18  A    between atoms: _43  and  _44
REMARK   19  A    between atoms: _43  and  _46
REMARK   20  A    between atoms: _46  and  _47
REMARK   21  A    between atoms: _49  and  _51
REMARK   22  A    between atoms: _51  and  _52
REMARK   23  A    between atoms: _54  and  _56
REMARK   24  A    between atoms: _56  and  _57
REMARK   25  A    between atoms: _56  and  _59
REMARK   26  A    between atoms: _59  and  _60
REMARK   27  A    between atoms: _63  and  _65
REMARK   28  A    between atoms: _65  and  _66
REMARK   29  A    between atoms: _65  and  _68
REMARK   30  A    between atoms: _68  and  _69
REMARK   31  A    between atoms: _69  and  _70
REMARK   32  A    between atoms: _75  and  _77
REMARK   33  A    between atoms: _77  and  _78
REMARK   34  A    between atoms: _77  and  _80
REMARK   35  A    between atoms: _80  and  _81
REMARK   36  A    between atoms: _81  and  _82
REMARK   37  A    between atoms: _87  and  _89
REMARK   38  A    between atoms: _89  and  _90
REMARK   39  A    between atoms: _89  and  _92
REMARK   40  A    between atoms: _92  and  _93
REMARK   41  A    between atoms: _95  and  _97
REMARK   42  A    between atoms: _97  and  _98
REMARK   43  A    between atoms: _97  and  _100
REMARK   44  A    between atoms: _100  and  _101
REMARK   45  A    between atoms: _104  and  _106
REMARK   46  A    between atoms: _106  and  _107
REMARK   47  A    between atoms: _106  and  _109
REMARK   48  A    between atoms: _112  and  _114
REMARK   49  A    between atoms: _114  and  _115
REMARK   50  A    between atoms: _114  and  _117
REMARK   51  A    between atoms: _117  and  _118
REMARK   52  A    between atoms: _123  and  _125
REMARK   53  A    between atoms: _125  and  _126
REMARK   54  A    between atoms: _125  and  _128
REMARK   55  A    between atoms: _128  and  _129
REMARK   56  A    between atoms: _129  and  _130
REMARK   57  A    between atoms: _130  and  _131
REMARK   58  A    between atoms: _140  and  _142
REMARK   59  A    between atoms: _142  and  _143
REMARK   60  A    between atoms: _142  and  _145
REMARK   61  A    between atoms: _145  and  _146
REMARK   62  A    between atoms: _148  and  _150
REMARK   63  A    between atoms: _150  and  _151
REMARK   64  A    between atoms: _150  and  _153
REMARK   65  A    between atoms: _153  and  _154
REMARK   66  A    between atoms: _156  and  _158
REMARK   67  A    between atoms: _158  and  _159
REMARK   68  A    between atoms: _158  and  _161
REMARK   69  A    between atoms: _161  and  _162
REMARK   70  A    between atoms: _162  and  _163
REMARK   71  A    between atoms: _166  and  _168
REMARK   72  A    between atoms: _168  and  _169
REMARK   73  A    between atoms: _168  and  _171
REMARK   74  A    between atoms: _171  and  _172
REMARK   75  A    between atoms: _175  and  _177
REMARK   76  A    between atoms: _177  and  _178
REMARK   77  A    between atoms: _180  and  _182
REMARK   78  A    between atoms: _182  and  _183
REMARK   79  A    between atoms: _182  and  _185
REMARK   80  A    between atoms: _185  and  _186
REMARK   81  A    between atoms: _189  and  _191
REMARK   82  A    between atoms: _200  and  _203
REMARK   83  A    between atoms: _203  and  _204
REMARK   84  A    between atoms: _211  and  _212
REMARK   85  A    between atoms: _218  and  _220
REMARK   86  A    between atoms: _220  and  _221
REMARK   87  A    between atoms: _220  and  _223
REMARK   88  A    between atoms: _223  and  _224
REMARK   89  A    between atoms: _229  and  _230
REMARK   90  A    between atoms: _232  and  _234
REMARK   91  A    between atoms: _238  and  _240
REMARK   92  A    between atoms: _245  and  _246
REMARK   93  A    between atoms: _252  and  _254
REMARK   94  A    between atoms: _254  and  _255
REMARK                            x       y       z     vdW  Elec       q    Type
REMARK                         _______ _______ _______ _____ _____    ______ ____
ROOT
ATOM      1  O   HOH     1      43.898   6.411  -4.121  0.00  0.00    +0.000 OA
ENDROOT
TORSDOF 0
REMARK  Name = ../refined-set-2016/2jdk/2jdk_pocket.pdb
REMARK  94 active torsions:
REMARK  status: ('A' for Active; 'I' for Inactive)
REMARK    1  A    between atoms: _1  and  _3
REMARK    2  A    between atoms: _3  and  _4
REMARK    3  A    between atoms: _3  and  _6
REMARK    4  A    between atoms: _6  and  _7
REMARK    5  A    between atoms: _10  and  _12
REMARK    6  A    between atoms: _12  and  _13
REMARK    7  A    between atoms: _16  and  _18
REMARK    8  A    between atoms: _18  and  _19
REMARK    9  A    between atoms: _22  and  _24
REMARK   10  A    between atoms: _24  and  _25
REMARK   11  A    between atoms: _24  and  _27
REMARK   12  A    between atoms: _27  and  _28
REMARK   13  A    between atoms: _33  and  _35
REMARK   14  A    between atoms: _35  and  _36
REMARK   15  A    between atoms: _35  and  _38
REMARK   16  A    between atoms: _38  and  _39
REMARK   17  A    between atoms: _41  and  _43
REMARK   18  A    between atoms: _43  and  _44
REMARK   19  A    between atoms: _43  and  _46
REMARK   20  A    between atoms: _46  and  _47
REMARK   21  A    between atoms: _49  and  _51
REMARK   22  A    between atoms: _51  and  _52
REMARK   23  A    between atoms: _54  and  _56
REMARK   24  A    between atoms: _56  and  _57
REMARK   25  A    between atoms: _56  and  _59
REMARK   26  A    between atoms: _59  and  _60
REMARK   27  A    between atoms: _63  and  _65
REMARK   28  A    between atoms: _65  and  _66
REMARK   29  A    between atoms: _65  and  _68
REMARK   30  A    between atoms: _68  and  _69
REMARK   31  A    between atoms: _69  and  _70
REMARK   32  A    between atoms: _75  and  _77
REMARK   33  A    between atoms: _77  and  _78
REMARK   34  A    between atoms: _77  and  _80
REMARK   35  A    between atoms: _80  and  _81
REMARK   36  A    between atoms: _81  and  _82
REMARK   37  A    between atoms: _87  and  _89
REMARK   38  A    between atoms: _89  and  _90
REMARK   39  A    between atoms: _89  and  _92
REMARK   40  A    between atoms: _92  and  _93
REMARK   41  A    between atoms: _95  and  _97
REMARK   42  A    between atoms: _97  and  _98
REMARK   43  A    between atoms: _97  and  _100
REMARK   44  A    between atoms: _100  and  _101
REMARK   45  A    between atoms: _104  and  _106
REMARK   46  A    between atoms: _106  and  _107
REMARK   47  A    between atoms: _106  and  _109
REMARK   48  A    between atoms: _112  and  _114
REMARK   49  A    between atoms: _114  and  _115
REMARK   50  A    between atoms: _114  and  _117
REMARK   51  A    between atoms: _117  and  _118
REMARK   52  A    between atoms: _123  and  _125
REMARK   53  A    between atoms: _125  and  _126
REMARK   54  A    between atoms: _125  and  _128
REMARK   55  A    between atoms: _128  and  _129
REMARK   56  A    between atoms: _129  and  _130
REMARK   57  A    between atoms: _130  and  _131
REMARK   58  A    between atoms: _140  and  _142
REMARK   59  A    between atoms: _142  and  _143
REMARK   60  A    between atoms: _142  and  _145
REMARK   61  A    between atoms: _145  and  _146
REMARK   62  A    between atoms: _148  and  _150
REMARK   63  A    between atoms: _150  and  _151
REMARK   64  A    between atoms: _150  and  _153
REMARK   65  A    between atoms: _153  and  _154
REMARK   66  A    between atoms: _156  and  _158
REMARK   67  A    between atoms: _158  and  _159
REMARK   68  A    between atoms: _158  and  _161
REMARK   69  A    between atoms: _161  and  _162
REMARK   70  A    between atoms: _162  and  _163
REMARK   71  A    between atoms: _166  and  _168
REMARK   72  A    between atoms: _168  and  _169
REMARK   73  A    between atoms: _168  and  _171
REMARK   74  A    between atoms: _171  and  _172
REMARK   75  A    between atoms: _175  and  _177
REMARK   76  A    between atoms: _177  and  _178
REMARK   77  A    between atoms: _180  and  _182
REMARK   78  A    between atoms: _182  and  _183
REMARK   79  A    between atoms: _182  and  _185
REMARK   80  A    between atoms: _185  and  _186
REMARK   81  A    between atoms: _189  and  _191
REMARK   82  A    between atoms: _200  and  _203
REMARK   83  A    between atoms: _203  and  _204
REMARK   84  A    between atoms: _211  and  _212
REMARK   85  A    between atoms: _218  and  _220
REMARK   86  A    between atoms: _220  and  _221
REMARK   87  A    between atoms: _220  and  _223
REMARK   88  A    between atoms: _223  and  _224
REMARK   89  A    between atoms: _229  and  _230
REMARK   90  A    between atoms: _232  and  _234
REMARK   91  A    between atoms: _238  and  _240
REMARK   92  A    between atoms: _245  and  _246
REMARK   93  A    between atoms: _252  and  _254
REMARK   94  A    between atoms: _254  and  _255
REMARK                            x       y       z     vdW  Elec       q    Type
REMARK                         _______ _______ _______ _____ _____    ______ ____
ROOT
ATOM      1  O   HOH     1      46.634   1.770  -3.019  0.00  0.00    +0.000 OA
ENDROOT
TORSDOF 0
REMARK  Name = ../refined-set-2016/2jdk/2jdk_pocket.pdb
REMARK  94 active torsions:
REMARK  status: ('A' for Active; 'I' for Inactive)
REMARK    1  A    between atoms: _1  and  _3
REMARK    2  A    between atoms: _3  and  _4
REMARK    3  A    between atoms: _3  and  _6
REMARK    4  A    between atoms: _6  and  _7
REMARK    5  A    between atoms: _10  and  _12
REMARK    6  A    between atoms: _12  and  _13
REMARK    7  A    between atoms: _16  and  _18
REMARK    8  A    between atoms: _18  and  _19
REMARK    9  A    between atoms: _22  and  _24
REMARK   10  A    between atoms: _24  and  _25
REMARK   11  A    between atoms: _24  and  _27
REMARK   12  A    between atoms: _27  and  _28
REMARK   13  A    between atoms: _33  and  _35
REMARK   14  A    between atoms: _35  and  _36
REMARK   15  A    between atoms: _35  and  _38
REMARK   16  A    between atoms: _38  and  _39
REMARK   17  A    between atoms: _41  and  _43
REMARK   18  A    between atoms: _43  and  _44
REMARK   19  A    between atoms: _43  and  _46
REMARK   20  A    between atoms: _46  and  _47
REMARK   21  A    between atoms: _49  and  _51
REMARK   22  A    between atoms: _51  and  _52
REMARK   23  A    between atoms: _54  and  _56
REMARK   24  A    between atoms: _56  and  _57
REMARK   25  A    between atoms: _56  and  _59
REMARK   26  A    between atoms: _59  and  _60
REMARK   27  A    between atoms: _63  and  _65
REMARK   28  A    between atoms: _65  and  _66
REMARK   29  A    between atoms: _65  and  _68
REMARK   30  A    between atoms: _68  and  _69
REMARK   31  A    between atoms: _69  and  _70
REMARK   32  A    between atoms: _75  and  _77
REMARK   33  A    between atoms: _77  and  _78
REMARK   34  A    between atoms: _77  and  _80
REMARK   35  A    between atoms: _80  and  _81
REMARK   36  A    between atoms: _81  and  _82
REMARK   37  A    between atoms: _87  and  _89
REMARK   38  A    between atoms: _89  and  _90
REMARK   39  A    between atoms: _89  and  _92
REMARK   40  A    between atoms: _92  and  _93
REMARK   41  A    between atoms: _95  and  _97
REMARK   42  A    between atoms: _97  and  _98
REMARK   43  A    between atoms: _97  and  _100
REMARK   44  A    between atoms: _100  and  _101
REMARK   45  A    between atoms: _104  and  _106
REMARK   46  A    between atoms: _106  and  _107
REMARK   47  A    between atoms: _106  and  _109
REMARK   48  A    between atoms: _112  and  _114
REMARK   49  A    between atoms: _114  and  _115
REMARK   50  A    between atoms: _114  and  _117
REMARK   51  A    between atoms: _117  and  _118
REMARK   52  A    between atoms: _123  and  _125
REMARK   53  A    between atoms: _125  and  _126
REMARK   54  A    between atoms: _125  and  _128
REMARK   55  A    between atoms: _128  and  _129
REMARK   56  A    between atoms: _129  and  _130
REMARK   57  A    between atoms: _130  and  _131
REMARK   58  A    between atoms: _140  and  _142
REMARK   59  A    between atoms: _142  and  _143
REMARK   60  A    between atoms: _142  and  _145
REMARK   61  A    between atoms: _145  and  _146
REMARK   62  A    between atoms: _148  and  _150
REMARK   63  A    between atoms: _150  and  _151
REMARK   64  A    between atoms: _150  and  _153
REMARK   65  A    between atoms: _153  and  _154
REMARK   66  A    between atoms: _156  and  _158
REMARK   67  A    between atoms: _158  and  _159
REMARK   68  A    between atoms: _158  and  _161
REMARK   69  A    between atoms: _161  and  _162
REMARK   70  A    between atoms: _162  and  _163
REMARK   71  A    between atoms: _166  and  _168
REMARK   72  A    between atoms: _168  and  _169
REMARK   73  A    between atoms: _168  and  _171
REMARK   74  A    between atoms: _171  and  _172
REMARK   75  A    between atoms: _175  and  _177
REMARK   76  A    between atoms: _177  and  _178
REMARK   77  A    between atoms: _180  and  _182
REMARK   78  A    between atoms: _182  and  _183
REMARK   79  A    between atoms: _182  and  _185
REMARK   80  A    between atoms: _185  and  _186
REMARK   81  A    between atoms: _189  and  _191
REMARK   82  A    between atoms: _200  and  _203
REMARK   83  A    between atoms: _203  and  _204
REMARK   84  A    between atoms: _211  and  _212
REMARK   85  A    between atoms: _218  and  _220
REMARK   86  A    between atoms: _220  and  _221
REMARK   87  A    between atoms: _220  and  _223
REMARK   88  A    between atoms: _223  and  _224
REMARK   89  A    between atoms: _229  and  _230
REMARK   90  A    between atoms: _232  and  _234
REMARK   91  A    between atoms: _238  and  _240
REMARK   92  A    between atoms: _245  and  _246
REMARK   93  A    between atoms: _252  and  _254
REMARK   94  A    between atoms: _254  and  _255
REMARK                            x       y       z     vdW  Elec       q    Type
REMARK                         _______ _______ _______ _____ _____    ______ ____
ROOT
ATOM      1  O   HOH     1      46.893   7.462   0.193  0.00  0.00    +0.000 OA
ENDROOT
TORSDOF 0
REMARK  Name = ../refined-set-2016/2jdk/2jdk_pocket.pdb
REMARK  94 active torsions:
REMARK  status: ('A' for Active; 'I' for Inactive)
REMARK    1  A    between atoms: _1  and  _3
REMARK    2  A    between atoms: _3  and  _4
REMARK    3  A    between atoms: _3  and  _6
REMARK    4  A    between atoms: _6  and  _7
REMARK    5  A    between atoms: _10  and  _12
REMARK    6  A    between atoms: _12  and  _13
REMARK    7  A    between atoms: _16  and  _18
REMARK    8  A    between atoms: _18  and  _19
REMARK    9  A    between atoms: _22  and  _24
REMARK   10  A    between atoms: _24  and  _25
REMARK   11  A    between atoms: _24  and  _27
REMARK   12  A    between atoms: _27  and  _28
REMARK   13  A    between atoms: _33  and  _35
REMARK   14  A    between atoms: _35  and  _36
REMARK   15  A    between atoms: _35  and  _38
REMARK   16  A    between atoms: _38  and  _39
REMARK   17  A    between atoms: _41  and  _43
REMARK   18  A    between atoms: _43  and  _44
REMARK   19  A    between atoms: _43  and  _46
REMARK   20  A    between atoms: _46  and  _47
REMARK   21  A    between atoms: _49  and  _51
REMARK   22  A    between atoms: _51  and  _52
REMARK   23  A    between atoms: _54  and  _56
REMARK   24  A    between atoms: _56  and  _57
REMARK   25  A    between atoms: _56  and  _59
REMARK   26  A    between atoms: _59  and  _60
REMARK   27  A    between atoms: _63  and  _65
REMARK   28  A    between atoms: _65  and  _66
REMARK   29  A    between atoms: _65  and  _68
REMARK   30  A    between atoms: _68  and  _69
REMARK   31  A    between atoms: _69  and  _70
REMARK   32  A    between atoms: _75  and  _77
REMARK   33  A    between atoms: _77  and  _78
REMARK   34  A    between atoms: _77  and  _80
REMARK   35  A    between atoms: _80  and  _81
REMARK   36  A    between atoms: _81  and  _82
REMARK   37  A    between atoms: _87  and  _89
REMARK   38  A    between atoms: _89  and  _90
REMARK   39  A    between atoms: _89  and  _92
REMARK   40  A    between atoms: _92  and  _93
REMARK   41  A    between atoms: _95  and  _97
REMARK   42  A    between atoms: _97  and  _98
REMARK   43  A    between atoms: _97  and  _100
REMARK   44  A    between atoms: _100  and  _101
REMARK   45  A    between atoms: _104  and  _106
REMARK   46  A    between atoms: _106  and  _107
REMARK   47  A    between atoms: _106  and  _109
REMARK   48  A    between atoms: _112  and  _114
REMARK   49  A    between atoms: _114  and  _115
REMARK   50  A    between atoms: _114  and  _117
REMARK   51  A    between atoms: _117  and  _118
REMARK   52  A    between atoms: _123  and  _125
REMARK   53  A    between atoms: _125  and  _126
REMARK   54  A    between atoms: _125  and  _128
REMARK   55  A    between atoms: _128  and  _129
REMARK   56  A    between atoms: _129  and  _130
REMARK   57  A    between atoms: _130  and  _131
REMARK   58  A    between atoms: _140  and  _142
REMARK   59  A    between atoms: _142  and  _143
REMARK   60  A    between atoms: _142  and  _145
REMARK   61  A    between atoms: _145  and  _146
REMARK   62  A    between atoms: _148  and  _150
REMARK   63  A    between atoms: _150  and  _151
REMARK   64  A    between atoms: _150  and  _153
REMARK   65  A    between atoms: _153  and  _154
REMARK   66  A    between atoms: _156  and  _158
REMARK   67  A    between atoms: _158  and  _159
REMARK   68  A    between atoms: _158  and  _161
REMARK   69  A    between atoms: _161  and  _162
REMARK   70  A    between atoms: _162  and  _163
REMARK   71  A    between atoms: _166  and  _168
REMARK   72  A    between atoms: _168  and  _169
REMARK   73  A    between atoms: _168  and  _171
REMARK   74  A    between atoms: _171  and  _172
REMARK   75  A    between atoms: _175  and  _177
REMARK   76  A    between atoms: _177  and  _178
REMARK   77  A    between atoms: _180  and  _182
REMARK   78  A    between atoms: _182  and  _183
REMARK   79  A    between atoms: _182  and  _185
REMARK   80  A    between atoms: _185  and  _186
REMARK   81  A    between atoms: _189  and  _191
REMARK   82  A    between atoms: _200  and  _203
REMARK   83  A    between atoms: _203  and  _204
REMARK   84  A    between atoms: _211  and  _212
REMARK   85  A    between atoms: _218  and  _220
REMARK   86  A    between atoms: _220  and  _221
REMARK   87  A    between atoms: _220  and  _223
REMARK   88  A    between atoms: _223  and  _224
REMARK   89  A    between atoms: _229  and  _230
REMARK   90  A    between atoms: _232  and  _234
REMARK   91  A    between atoms: _238  and  _240
REMARK   92  A    between atoms: _245  and  _246
REMARK   93  A    between atoms: _252  and  _254
REMARK   94  A    between atoms: _254  and  _255
REMARK                            x       y       z     vdW  Elec       q    Type
REMARK                         _______ _______ _______ _____ _____    ______ ____
ROOT
ATOM      1  O   HOH     1      42.022  11.985  -1.325  0.00  0.00    +0.000 OA
ENDROOT
TORSDOF 0
REMARK  Name = ../refined-set-2016/2jdk/2jdk_pocket.pdb
REMARK  94 active torsions:
REMARK  status: ('A' for Active; 'I' for Inactive)
REMARK    1  A    between atoms: _1  and  _3
REMARK    2  A    between atoms: _3  and  _4
REMARK    3  A    between atoms: _3  and  _6
REMARK    4  A    between atoms: _6  and  _7
REMARK    5  A    between atoms: _10  and  _12
REMARK    6  A    between atoms: _12  and  _13
REMARK    7  A    between atoms: _16  and  _18
REMARK    8  A    between atoms: _18  and  _19
REMARK    9  A    between atoms: _22  and  _24
REMARK   10  A    between atoms: _24  and  _25
REMARK   11  A    between atoms: _24  and  _27
REMARK   12  A    between atoms: _27  and  _28
REMARK   13  A    between atoms: _33  and  _35
REMARK   14  A    between atoms: _35  and  _36
REMARK   15  A    between atoms: _35  and  _38
REMARK   16  A    between atoms: _38  and  _39
REMARK   17  A    between atoms: _41  and  _43
REMARK   18  A    between atoms: _43  and  _44
REMARK   19  A    between atoms: _43  and  _46
REMARK   20  A    between atoms: _46  and  _47
REMARK   21  A    between atoms: _49  and  _51
REMARK   22  A    between atoms: _51  and  _52
REMARK   23  A    between atoms: _54  and  _56
REMARK   24  A    between atoms: _56  and  _57
REMARK   25  A    between atoms: _56  and  _59
REMARK   26  A    between atoms: _59  and  _60
REMARK   27  A    between atoms: _63  and  _65
REMARK   28  A    between atoms: _65  and  _66
REMARK   29  A    between atoms: _65  and  _68
REMARK   30  A    between atoms: _68  and  _69
REMARK   31  A    between atoms: _69  and  _70
REMARK   32  A    between atoms: _75  and  _77
REMARK   33  A    between atoms: _77  and  _78
REMARK   34  A    between atoms: _77  and  _80
REMARK   35  A    between atoms: _80  and  _81
REMARK   36  A    between atoms: _81  and  _82
REMARK   37  A    between atoms: _87  and  _89
REMARK   38  A    between atoms: _89  and  _90
REMARK   39  A    between atoms: _89  and  _92
REMARK   40  A    between atoms: _92  and  _93
REMARK   41  A    between atoms: _95  and  _97
REMARK   42  A    between atoms: _97  and  _98
REMARK   43  A    between atoms: _97  and  _100
REMARK   44  A    between atoms: _100  and  _101
REMARK   45  A    between atoms: _104  and  _106
REMARK   46  A    between atoms: _106  and  _107
REMARK   47  A    between atoms: _106  and  _109
REMARK   48  A    between atoms: _112  and  _114
REMARK   49  A    between atoms: _114  and  _115
REMARK   50  A    between atoms: _114  and  _117
REMARK   51  A    between atoms: _117  and  _118
REMARK   52  A    between atoms: _123  and  _125
REMARK   53  A    between atoms: _125  and  _126
REMARK   54  A    between atoms: _125  and  _128
REMARK   55  A    between atoms: _128  and  _129
REMARK   56  A    between atoms: _129  and  _130
REMARK   57  A    between atoms: _130  and  _131
REMARK   58  A    between atoms: _140  and  _142
REMARK   59  A    between atoms: _142  and  _143
REMARK   60  A    between atoms: _142  and  _145
REMARK   61  A    between atoms: _145  and  _146
REMARK   62  A    between atoms: _148  and  _150
REMARK   63  A    between atoms: _150  and  _151
REMARK   64  A    between atoms: _150  and  _153
REMARK   65  A    between atoms: _153  and  _154
REMARK   66  A    between atoms: _156  and  _158
REMARK   67  A    between atoms: _158  and  _159
REMARK   68  A    between atoms: _158  and  _161
REMARK   69  A    between atoms: _161  and  _162
REMARK   70  A    between atoms: _162  and  _163
REMARK   71  A    between atoms: _166  and  _168
REMARK   72  A    between atoms: _168  and  _169
REMARK   73  A    between atoms: _168  and  _171
REMARK   74  A    between atoms: _171  and  _172
REMARK   75  A    between atoms: _175  and  _177
REMARK   76  A    between atoms: _177  and  _178
REMARK   77  A    between atoms: _180  and  _182
REMARK   78  A    between atoms: _182  and  _183
REMARK   79  A    between atoms: _182  and  _185
REMARK   80  A    between atoms: _185  and  _186
REMARK   81  A    between atoms: _189  and  _191
REMARK   82  A    between atoms: _200  and  _203
REMARK   83  A    between atoms: _203  and  _204
REMARK   84  A    between atoms: _211  and  _212
REMARK   85  A    between atoms: _218  and  _220
REMARK   86  A    between atoms: _220  and  _221
REMARK   87  A    between atoms: _220  and  _223
REMARK   88  A    between atoms: _223  and  _224
REMARK   89  A    between atoms: _229  and  _230
REMARK   90  A    between atoms: _232  and  _234
REMARK   91  A    between atoms: _238  and  _240
REMARK   92  A    between atoms: _245  and  _246
REMARK   93  A    between atoms: _252  and  _254
REMARK   94  A    between atoms: _254  and  _255
REMARK                            x       y       z     vdW  Elec       q    Type
REMARK                         _______ _______ _______ _____ _____    ______ ____
ROOT
ATOM      1  O   HOH     1      37.801  11.076  -6.168  0.00  0.00    +0.000 OA
ENDROOT
TORSDOF 0
REMARK  Name = ../refined-set-2016/2jdk/2jdk_pocket.pdb
REMARK  94 active torsions:
REMARK  status: ('A' for Active; 'I' for Inactive)
REMARK    1  A    between atoms: _1  and  _3
REMARK    2  A    between atoms: _3  and  _4
REMARK    3  A    between atoms: _3  and  _6
REMARK    4  A    between atoms: _6  and  _7
REMARK    5  A    between atoms: _10  and  _12
REMARK    6  A    between atoms: _12  and  _13
REMARK    7  A    between atoms: _16  and  _18
REMARK    8  A    between atoms: _18  and  _19
REMARK    9  A    between atoms: _22  and  _24
REMARK   10  A    between atoms: _24  and  _25
REMARK   11  A    between atoms: _24  and  _27
REMARK   12  A    between atoms: _27  and  _28
REMARK   13  A    between atoms: _33  and  _35
REMARK   14  A    between atoms: _35  and  _36
REMARK   15  A    between atoms: _35  and  _38
REMARK   16  A    between atoms: _38  and  _39
REMARK   17  A    between atoms: _41  and  _43
REMARK   18  A    between atoms: _43  and  _44
REMARK   19  A    between atoms: _43  and  _46
REMARK   20  A    between atoms: _46  and  _47
REMARK   21  A    between atoms: _49  and  _51
REMARK   22  A    between atoms: _51  and  _52
REMARK   23  A    between atoms: _54  and  _56
REMARK   24  A    between atoms: _56  and  _57
REMARK   25  A    between atoms: _56  and  _59
REMARK   26  A    between atoms: _59  and  _60
REMARK   27  A    between atoms: _63  and  _65
REMARK   28  A    between atoms: _65  and  _66
REMARK   29  A    between atoms: _65  and  _68
REMARK   30  A    between atoms: _68  and  _69
REMARK   31  A    between atoms: _69  and  _70
REMARK   32  A    between atoms: _75  and  _77
REMARK   33  A    between atoms: _77  and  _78
REMARK   34  A    between atoms: _77  and  _80
REMARK   35  A    between atoms: _80  and  _81
REMARK   36  A    between atoms: _81  and  _82
REMARK   37  A    between atoms: _87  and  _89
REMARK   38  A    between atoms: _89  and  _90
REMARK   39  A    between atoms: _89  and  _92
REMARK   40  A    between atoms: _92  and  _93
REMARK   41  A    between atoms: _95  and  _97
REMARK   42  A    between atoms: _97  and  _98
REMARK   43  A    between atoms: _97  and  _100
REMARK   44  A    between atoms: _100  and  _101
REMARK   45  A    between atoms: _104  and  _106
REMARK   46  A    between atoms: _106  and  _107
REMARK   47  A    between atoms: _106  and  _109
REMARK   48  A    between atoms: _112  and  _114
REMARK   49  A    between atoms: _114  and  _115
REMARK   50  A    between atoms: _114  and  _117
REMARK   51  A    between atoms: _117  and  _118
REMARK   52  A    between atoms: _123  and  _125
REMARK   53  A    between atoms: _125  and  _126
REMARK   54  A    between atoms: _125  and  _128
REMARK   55  A    between atoms: _128  and  _129
REMARK   56  A    between atoms: _129  and  _130
REMARK   57  A    between atoms: _130  and  _131
REMARK   58  A    between atoms: _140  and  _142
REMARK   59  A    between atoms: _142  and  _143
REMARK   60  A    between atoms: _142  and  _145
REMARK   61  A    between atoms: _145  and  _146
REMARK   62  A    between atoms: _148  and  _150
REMARK   63  A    between atoms: _150  and  _151
REMARK   64  A    between atoms: _150  and  _153
REMARK   65  A    between atoms: _153  and  _154
REMARK   66  A    between atoms: _156  and  _158
REMARK   67  A    between atoms: _158  and  _159
REMARK   68  A    between atoms: _158  and  _161
REMARK   69  A    between atoms: _161  and  _162
REMARK   70  A    between atoms: _162  and  _163
REMARK   71  A    between atoms: _166  and  _168
REMARK   72  A    between atoms: _168  and  _169
REMARK   73  A    between atoms: _168  and  _171
REMARK   74  A    between atoms: _171  and  _172
REMARK   75  A    between atoms: _175  and  _177
REMARK   76  A    between atoms: _177  and  _178
REMARK   77  A    between atoms: _180  and  _182
REMARK   78  A    between atoms: _182  and  _183
REMARK   79  A    between atoms: _182  and  _185
REMARK   80  A    between atoms: _185  and  _186
REMARK   81  A    between atoms: _189  and  _191
REMARK   82  A    between atoms: _200  and  _203
REMARK   83  A    between atoms: _203  and  _204
REMARK   84  A    between atoms: _211  and  _212
REMARK   85  A    between atoms: _218  and  _220
REMARK   86  A    between atoms: _220  and  _221
REMARK   87  A    between atoms: _220  and  _223
REMARK   88  A    between atoms: _223  and  _224
REMARK   89  A    between atoms: _229  and  _230
REMARK   90  A    between atoms: _232  and  _234
REMARK   91  A    between atoms: _238  and  _240
REMARK   92  A    between atoms: _245  and  _246
REMARK   93  A    between atoms: _252  and  _254
REMARK   94  A    between atoms: _254  and  _255
REMARK                            x       y       z     vdW  Elec       q    Type
REMARK                         _______ _______ _______ _____ _____    ______ ____
ROOT
ATOM      1  O   HOH     1      36.175   5.349  -7.683  0.00  0.00    +0.000 OA
ENDROOT
TORSDOF 0
REMARK  Name = ../refined-set-2016/2jdk/2jdk_pocket.pdb
REMARK  94 active torsions:
REMARK  status: ('A' for Active; 'I' for Inactive)
REMARK    1  A    between atoms: _1  and  _3
REMARK    2  A    between atoms: _3  and  _4
REMARK    3  A    between atoms: _3  and  _6
REMARK    4  A    between atoms: _6  and  _7
REMARK    5  A    between atoms: _10  and  _12
REMARK    6  A    between atoms: _12  and  _13
REMARK    7  A    between atoms: _16  and  _18
REMARK    8  A    between atoms: _18  and  _19
REMARK    9  A    between atoms: _22  and  _24
REMARK   10  A    between atoms: _24  and  _25
REMARK   11  A    between atoms: _24  and  _27
REMARK   12  A    between atoms: _27  and  _28
REMARK   13  A    between atoms: _33  and  _35
REMARK   14  A    between atoms: _35  and  _36
REMARK   15  A    between atoms: _35  and  _38
REMARK   16  A    between atoms: _38  and  _39
REMARK   17  A    between atoms: _41  and  _43
REMARK   18  A    between atoms: _43  and  _44
REMARK   19  A    between atoms: _43  and  _46
REMARK   20  A    between atoms: _46  and  _47
REMARK   21  A    between atoms: _49  and  _51
REMARK   22  A    between atoms: _51  and  _52
REMARK   23  A    between atoms: _54  and  _56
REMARK   24  A    between atoms: _56  and  _57
REMARK   25  A    between atoms: _56  and  _59
REMARK   26  A    between atoms: _59  and  _60
REMARK   27  A    between atoms: _63  and  _65
REMARK   28  A    between atoms: _65  and  _66
REMARK   29  A    between atoms: _65  and  _68
REMARK   30  A    between atoms: _68  and  _69
REMARK   31  A    between atoms: _69  and  _70
REMARK   32  A    between atoms: _75  and  _77
REMARK   33  A    between atoms: _77  and  _78
REMARK   34  A    between atoms: _77  and  _80
REMARK   35  A    between atoms: _80  and  _81
REMARK   36  A    between atoms: _81  and  _82
REMARK   37  A    between atoms: _87  and  _89
REMARK   38  A    between atoms: _89  and  _90
REMARK   39  A    between atoms: _89  and  _92
REMARK   40  A    between atoms: _92  and  _93
REMARK   41  A    between atoms: _95  and  _97
REMARK   42  A    between atoms: _97  and  _98
REMARK   43  A    between atoms: _97  and  _100
REMARK   44  A    between atoms: _100  and  _101
REMARK   45  A    between atoms: _104  and  _106
REMARK   46  A    between atoms: _106  and  _107
REMARK   47  A    between atoms: _106  and  _109
REMARK   48  A    between atoms: _112  and  _114
REMARK   49  A    between atoms: _114  and  _115
REMARK   50  A    between atoms: _114  and  _117
REMARK   51  A    between atoms: _117  and  _118
REMARK   52  A    between atoms: _123  and  _125
REMARK   53  A    between atoms: _125  and  _126
REMARK   54  A    between atoms: _125  and  _128
REMARK   55  A    between atoms: _128  and  _129
REMARK   56  A    between atoms: _129  and  _130
REMARK   57  A    between atoms: _130  and  _131
REMARK   58  A    between atoms: _140  and  _142
REMARK   59  A    between atoms: _142  and  _143
REMARK   60  A    between atoms: _142  and  _145
REMARK   61  A    between atoms: _145  and  _146
REMARK   62  A    between atoms: _148  and  _150
REMARK   63  A    between atoms: _150  and  _151
REMARK   64  A    between atoms: _150  and  _153
REMARK   65  A    between atoms: _153  and  _154
REMARK   66  A    between atoms: _156  and  _158
REMARK   67  A    between atoms: _158  and  _159
REMARK   68  A    between atoms: _158  and  _161
REMARK   69  A    between atoms: _161  and  _162
REMARK   70  A    between atoms: _162  and  _163
REMARK   71  A    between atoms: _166  and  _168
REMARK   72  A    between atoms: _168  and  _169
REMARK   73  A    between atoms: _168  and  _171
REMARK   74  A    between atoms: _171  and  _172
REMARK   75  A    between atoms: _175  and  _177
REMARK   76  A    between atoms: _177  and  _178
REMARK   77  A    between atoms: _180  and  _182
REMARK   78  A    between atoms: _182  and  _183
REMARK   79  A    between atoms: _182  and  _185
REMARK   80  A    between atoms: _185  and  _186
REMARK   81  A    between atoms: _189  and  _191
REMARK   82  A    between atoms: _200  and  _203
REMARK   83  A    between atoms: _203  and  _204
REMARK   84  A    between atoms: _211  and  _212
REMARK   85  A    between atoms: _218  and  _220
REMARK   86  A    between atoms: _220  and  _221
REMARK   87  A    between atoms: _220  and  _223
REMARK   88  A    between atoms: _223  and  _224
REMARK   89  A    between atoms: _229  and  _230
REMARK   90  A    between atoms: _232  and  _234
REMARK   91  A    between atoms: _238  and  _240
REMARK   92  A    between atoms: _245  and  _246
REMARK   93  A    between atoms: _252  and  _254
REMARK   94  A    between atoms: _254  and  _255
REMARK                            x       y       z     vdW  Elec       q    Type
REMARK                         _______ _______ _______ _____ _____    ______ ____
ROOT
ATOM      1  O   HOH     1      34.754  -1.025  -5.100  0.00  0.00    +0.000 OA
ENDROOT
TORSDOF 0
REMARK  Name = ../refined-set-2016/2jdk/2jdk_pocket.pdb
REMARK  94 active torsions:
REMARK  status: ('A' for Active; 'I' for Inactive)
REMARK    1  A    between atoms: _1  and  _3
REMARK    2  A    between atoms: _3  and  _4
REMARK    3  A    between atoms: _3  and  _6
REMARK    4  A    between atoms: _6  and  _7
REMARK    5  A    between atoms: _10  and  _12
REMARK    6  A    between atoms: _12  and  _13
REMARK    7  A    between atoms: _16  and  _18
REMARK    8  A    between atoms: _18  and  _19
REMARK    9  A    between atoms: _22  and  _24
REMARK   10  A    between atoms: _24  and  _25
REMARK   11  A    between atoms: _24  and  _27
REMARK   12  A    between atoms: _27  and  _28
REMARK   13  A    between atoms: _33  and  _35
REMARK   14  A    between atoms: _35  and  _36
REMARK   15  A    between atoms: _35  and  _38
REMARK   16  A    between atoms: _38  and  _39
REMARK   17  A    between atoms: _41  and  _43
REMARK   18  A    between atoms: _43  and  _44
REMARK   19  A    between atoms: _43  and  _46
REMARK   20  A    between atoms: _46  and  _47
REMARK   21  A    between atoms: _49  and  _51
REMARK   22  A    between atoms: _51  and  _52
REMARK   23  A    between atoms: _54  and  _56
REMARK   24  A    between atoms: _56  and  _57
REMARK   25  A    between atoms: _56  and  _59
REMARK   26  A    between atoms: _59  and  _60
REMARK   27  A    between atoms: _63  and  _65
REMARK   28  A    between atoms: _65  and  _66
REMARK   29  A    between atoms: _65  and  _68
REMARK   30  A    between atoms: _68  and  _69
REMARK   31  A    between atoms: _69  and  _70
REMARK   32  A    between atoms: _75  and  _77
REMARK   33  A    between atoms: _77  and  _78
REMARK   34  A    between atoms: _77  and  _80
REMARK   35  A    between atoms: _80  and  _81
REMARK   36  A    between atoms: _81  and  _82
REMARK   37  A    between atoms: _87  and  _89
REMARK   38  A    between atoms: _89  and  _90
REMARK   39  A    between atoms: _89  and  _92
REMARK   40  A    between atoms: _92  and  _93
REMARK   41  A    between atoms: _95  and  _97
REMARK   42  A    between atoms: _97  and  _98
REMARK   43  A    between atoms: _97  and  _100
REMARK   44  A    between atoms: _100  and  _101
REMARK   45  A    between atoms: _104  and  _106
REMARK   46  A    between atoms: _106  and  _107
REMARK   47  A    between atoms: _106  and  _109
REMARK   48  A    between atoms: _112  and  _114
REMARK   49  A    between atoms: _114  and  _115
REMARK   50  A    between atoms: _114  and  _117
REMARK   51  A    between atoms: _117  and  _118
REMARK   52  A    between atoms: _123  and  _125
REMARK   53  A    between atoms: _125  and  _126
REMARK   54  A    between atoms: _125  and  _128
REMARK   55  A    between atoms: _128  and  _129
REMARK   56  A    between atoms: _129  and  _130
REMARK   57  A    between atoms: _130  and  _131
REMARK   58  A    between atoms: _140  and  _142
REMARK   59  A    between atoms: _142  and  _143
REMARK   60  A    between atoms: _142  and  _145
REMARK   61  A    between atoms: _145  and  _146
REMARK   62  A    between atoms: _148  and  _150
REMARK   63  A    between atoms: _150  and  _151
REMARK   64  A    between atoms: _150  and  _153
REMARK   65  A    between atoms: _153  and  _154
REMARK   66  A    between atoms: _156  and  _158
REMARK   67  A    between atoms: _158  and  _159
REMARK   68  A    between atoms: _158  and  _161
REMARK   69  A    between atoms: _161  and  _162
REMARK   70  A    between atoms: _162  and  _163
REMARK   71  A    between atoms: _166  and  _168
REMARK   72  A    between atoms: _168  and  _169
REMARK   73  A    between atoms: _168  and  _171
REMARK   74  A    between atoms: _171  and  _172
REMARK   75  A    between atoms: _175  and  _177
REMARK   76  A    between atoms: _177  and  _178
REMARK   77  A    between atoms: _180  and  _182
REMARK   78  A    between atoms: _182  and  _183
REMARK   79  A    between atoms: _182  and  _185
REMARK   80  A    between atoms: _185  and  _186
REMARK   81  A    between atoms: _189  and  _191
REMARK   82  A    between atoms: _200  and  _203
REMARK   83  A    between atoms: _203  and  _204
REMARK   84  A    between atoms: _211  and  _212
REMARK   85  A    between atoms: _218  and  _220
REMARK   86  A    between atoms: _220  and  _221
REMARK   87  A    between atoms: _220  and  _223
REMARK   88  A    between atoms: _223  and  _224
REMARK   89  A    between atoms: _229  and  _230
REMARK   90  A    between atoms: _232  and  _234
REMARK   91  A    between atoms: _238  and  _240
REMARK   92  A    between atoms: _245  and  _246
REMARK   93  A    between atoms: _252  and  _254
REMARK   94  A    between atoms: _254  and  _255
REMARK                            x       y       z     vdW  Elec       q    Type
REMARK                         _______ _______ _______ _____ _____    ______ ____
ROOT
ATOM      1  O   HOH     1      36.685   2.490  -7.469  0.00  0.00    +0.000 OA
ENDROOT
TORSDOF 0
REMARK  Name = ../refined-set-2016/2jdk/2jdk_pocket.pdb
REMARK  94 active torsions:
REMARK  status: ('A' for Active; 'I' for Inactive)
REMARK    1  A    between atoms: _1  and  _3
REMARK    2  A    between atoms: _3  and  _4
REMARK    3  A    between atoms: _3  and  _6
REMARK    4  A    between atoms: _6  and  _7
REMARK    5  A    between atoms: _10  and  _12
REMARK    6  A    between atoms: _12  and  _13
REMARK    7  A    between atoms: _16  and  _18
REMARK    8  A    between atoms: _18  and  _19
REMARK    9  A    between atoms: _22  and  _24
REMARK   10  A    between atoms: _24  and  _25
REMARK   11  A    between atoms: _24  and  _27
REMARK   12  A    between atoms: _27  and  _28
REMARK   13  A    between atoms: _33  and  _35
REMARK   14  A    between atoms: _35  and  _36
REMARK   15  A    between atoms: _35  and  _38
REMARK   16  A    between atoms: _38  and  _39
REMARK   17  A    between atoms: _41  and  _43
REMARK   18  A    between atoms: _43  and  _44
REMARK   19  A    between atoms: _43  and  _46
REMARK   20  A    between atoms: _46  and  _47
REMARK   21  A    between atoms: _49  and  _51
REMARK   22  A    between atoms: _51  and  _52
REMARK   23  A    between atoms: _54  and  _56
REMARK   24  A    between atoms: _56  and  _57
REMARK   25  A    between atoms: _56  and  _59
REMARK   26  A    between atoms: _59  and  _60
REMARK   27  A    between atoms: _63  and  _65
REMARK   28  A    between atoms: _65  and  _66
REMARK   29  A    between atoms: _65  and  _68
REMARK   30  A    between atoms: _68  and  _69
REMARK   31  A    between atoms: _69  and  _70
REMARK   32  A    between atoms: _75  and  _77
REMARK   33  A    between atoms: _77  and  _78
REMARK   34  A    between atoms: _77  and  _80
REMARK   35  A    between atoms: _80  and  _81
REMARK   36  A    between atoms: _81  and  _82
REMARK   37  A    between atoms: _87  and  _89
REMARK   38  A    between atoms: _89  and  _90
REMARK   39  A    between atoms: _89  and  _92
REMARK   40  A    between atoms: _92  and  _93
REMARK   41  A    between atoms: _95  and  _97
REMARK   42  A    between atoms: _97  and  _98
REMARK   43  A    between atoms: _97  and  _100
REMARK   44  A    between atoms: _100  and  _101
REMARK   45  A    between atoms: _104  and  _106
REMARK   46  A    between atoms: _106  and  _107
REMARK   47  A    between atoms: _106  and  _109
REMARK   48  A    between atoms: _112  and  _114
REMARK   49  A    between atoms: _114  and  _115
REMARK   50  A    between atoms: _114  and  _117
REMARK   51  A    between atoms: _117  and  _118
REMARK   52  A    between atoms: _123  and  _125
REMARK   53  A    between atoms: _125  and  _126
REMARK   54  A    between atoms: _125  and  _128
REMARK   55  A    between atoms: _128  and  _129
REMARK   56  A    between atoms: _129  and  _130
REMARK   57  A    between atoms: _130  and  _131
REMARK   58  A    between atoms: _140  and  _142
REMARK   59  A    between atoms: _142  and  _143
REMARK   60  A    between atoms: _142  and  _145
REMARK   61  A    between atoms: _145  and  _146
REMARK   62  A    between atoms: _148  and  _150
REMARK   63  A    between atoms: _150  and  _151
REMARK   64  A    between atoms: _150  and  _153
REMARK   65  A    between atoms: _153  and  _154
REMARK   66  A    between atoms: _156  and  _158
REMARK   67  A    between atoms: _158  and  _159
REMARK   68  A    between atoms: _158  and  _161
REMARK   69  A    between atoms: _161  and  _162
REMARK   70  A    between atoms: _162  and  _163
REMARK   71  A    between atoms: _166  and  _168
REMARK   72  A    between atoms: _168  and  _169
REMARK   73  A    between atoms: _168  and  _171
REMARK   74  A    between atoms: _171  and  _172
REMARK   75  A    between atoms: _175  and  _177
REMARK   76  A    between atoms: _177  and  _178
REMARK   77  A    between atoms: _180  and  _182
REMARK   78  A    between atoms: _182  and  _183
REMARK   79  A    between atoms: _182  and  _185
REMARK   80  A    between atoms: _185  and  _186
REMARK   81  A    between atoms: _189  and  _191
REMARK   82  A    between atoms: _200  and  _203
REMARK   83  A    between atoms: _203  and  _204
REMARK   84  A    between atoms: _211  and  _212
REMARK   85  A    between atoms: _218  and  _220
REMARK   86  A    between atoms: _220  and  _221
REMARK   87  A    between atoms: _220  and  _223
REMARK   88  A    between atoms: _223  and  _224
REMARK   89  A    between atoms: _229  and  _230
REMARK   90  A    between atoms: _232  and  _234
REMARK   91  A    between atoms: _238  and  _240
REMARK   92  A    between atoms: _245  and  _246
REMARK   93  A    between atoms: _252  and  _254
REMARK   94  A    between atoms: _254  and  _255
REMARK                            x       y       z     vdW  Elec       q    Type
REMARK                         _______ _______ _______ _____ _____    ______ ____
ROOT
ATOM      1  O   HOH     1      30.658  -1.914  -3.871  0.00  0.00    +0.000 OA
ENDROOT
TORSDOF 0
REMARK  Name = ../refined-set-2016/2jdk/2jdk_pocket.pdb
REMARK  94 active torsions:
REMARK  status: ('A' for Active; 'I' for Inactive)
REMARK    1  A    between atoms: _1  and  _3
REMARK    2  A    between atoms: _3  and  _4
REMARK    3  A    between atoms: _3  and  _6
REMARK    4  A    between atoms: _6  and  _7
REMARK    5  A    between atoms: _10  and  _12
REMARK    6  A    between atoms: _12  and  _13
REMARK    7  A    between atoms: _16  and  _18
REMARK    8  A    between atoms: _18  and  _19
REMARK    9  A    between atoms: _22  and  _24
REMARK   10  A    between atoms: _24  and  _25
REMARK   11  A    between atoms: _24  and  _27
REMARK   12  A    between atoms: _27  and  _28
REMARK   13  A    between atoms: _33  and  _35
REMARK   14  A    between atoms: _35  and  _36
REMARK   15  A    between atoms: _35  and  _38
REMARK   16  A    between atoms: _38  and  _39
REMARK   17  A    between atoms: _41  and  _43
REMARK   18  A    between atoms: _43  and  _44
REMARK   19  A    between atoms: _43  and  _46
REMARK   20  A    between atoms: _46  and  _47
REMARK   21  A    between atoms: _49  and  _51
REMARK   22  A    between atoms: _51  and  _52
REMARK   23  A    between atoms: _54  and  _56
REMARK   24  A    between atoms: _56  and  _57
REMARK   25  A    between atoms: _56  and  _59
REMARK   26  A    between atoms: _59  and  _60
REMARK   27  A    between atoms: _63  and  _65
REMARK   28  A    between atoms: _65  and  _66
REMARK   29  A    between atoms: _65  and  _68
REMARK   30  A    between atoms: _68  and  _69
REMARK   31  A    between atoms: _69  and  _70
REMARK   32  A    between atoms: _75  and  _77
REMARK   33  A    between atoms: _77  and  _78
REMARK   34  A    between atoms: _77  and  _80
REMARK   35  A    between atoms: _80  and  _81
REMARK   36  A    between atoms: _81  and  _82
REMARK   37  A    between atoms: _87  and  _89
REMARK   38  A    between atoms: _89  and  _90
REMARK   39  A    between atoms: _89  and  _92
REMARK   40  A    between atoms: _92  and  _93
REMARK   41  A    between atoms: _95  and  _97
REMARK   42  A    between atoms: _97  and  _98
REMARK   43  A    between atoms: _97  and  _100
REMARK   44  A    between atoms: _100  and  _101
REMARK   45  A    between atoms: _104  and  _106
REMARK   46  A    between atoms: _106  and  _107
REMARK   47  A    between atoms: _106  and  _109
REMARK   48  A    between atoms: _112  and  _114
REMARK   49  A    between atoms: _114  and  _115
REMARK   50  A    between atoms: _114  and  _117
REMARK   51  A    between atoms: _117  and  _118
REMARK   52  A    between atoms: _123  and  _125
REMARK   53  A    between atoms: _125  and  _126
REMARK   54  A    between atoms: _125  and  _128
REMARK   55  A    between atoms: _128  and  _129
REMARK   56  A    between atoms: _129  and  _130
REMARK   57  A    between atoms: _130  and  _131
REMARK   58  A    between atoms: _140  and  _142
REMARK   59  A    between atoms: _142  and  _143
REMARK   60  A    between atoms: _142  and  _145
REMARK   61  A    between atoms: _145  and  _146
REMARK   62  A    between atoms: _148  and  _150
REMARK   63  A    between atoms: _150  and  _151
REMARK   64  A    between atoms: _150  and  _153
REMARK   65  A    between atoms: _153  and  _154
REMARK   66  A    between atoms: _156  and  _158
REMARK   67  A    between atoms: _158  and  _159
REMARK   68  A    between atoms: _158  and  _161
REMARK   69  A    between atoms: _161  and  _162
REMARK   70  A    between atoms: _162  and  _163
REMARK   71  A    between atoms: _166  and  _168
REMARK   72  A    between atoms: _168  and  _169
REMARK   73  A    between atoms: _168  and  _171
REMARK   74  A    between atoms: _171  and  _172
REMARK   75  A    between atoms: _175  and  _177
REMARK   76  A    between atoms: _177  and  _178
REMARK   77  A    between atoms: _180  and  _182
REMARK   78  A    between atoms: _182  and  _183
REMARK   79  A    between atoms: _182  and  _185
REMARK   80  A    between atoms: _185  and  _186
REMARK   81  A    between atoms: _189  and  _191
REMARK   82  A    between atoms: _200  and  _203
REMARK   83  A    between atoms: _203  and  _204
REMARK   84  A    between atoms: _211  and  _212
REMARK   85  A    between atoms: _218  and  _220
REMARK   86  A    between atoms: _220  and  _221
REMARK   87  A    between atoms: _220  and  _223
REMARK   88  A    between atoms: _223  and  _224
REMARK   89  A    between atoms: _229  and  _230
REMARK   90  A    between atoms: _232  and  _234
REMARK   91  A    between atoms: _238  and  _240
REMARK   92  A    between atoms: _245  and  _246
REMARK   93  A    between atoms: _252  and  _254
REMARK   94  A    between atoms: _254  and  _255
REMARK                            x       y       z     vdW  Elec       q    Type
REMARK                         _______ _______ _______ _____ _____    ______ ____
ROOT
ATOM      1  O   HOH     1      45.029  -0.386  -3.787  0.00  0.00    +0.000 OA
ENDROOT
TORSDOF 0
REMARK  Name = ../refined-set-2016/2jdk/2jdk_pocket.pdb
REMARK  94 active torsions:
REMARK  status: ('A' for Active; 'I' for Inactive)
REMARK    1  A    between atoms: _1  and  _3
REMARK    2  A    between atoms: _3  and  _4
REMARK    3  A    between atoms: _3  and  _6
REMARK    4  A    between atoms: _6  and  _7
REMARK    5  A    between atoms: _10  and  _12
REMARK    6  A    between atoms: _12  and  _13
REMARK    7  A    between atoms: _16  and  _18
REMARK    8  A    between atoms: _18  and  _19
REMARK    9  A    between atoms: _22  and  _24
REMARK   10  A    between atoms: _24  and  _25
REMARK   11  A    between atoms: _24  and  _27
REMARK   12  A    between atoms: _27  and  _28
REMARK   13  A    between atoms: _33  and  _35
REMARK   14  A    between atoms: _35  and  _36
REMARK   15  A    between atoms: _35  and  _38
REMARK   16  A    between atoms: _38  and  _39
REMARK   17  A    between atoms: _41  and  _43
REMARK   18  A    between atoms: _43  and  _44
REMARK   19  A    between atoms: _43  and  _46
REMARK   20  A    between atoms: _46  and  _47
REMARK   21  A    between atoms: _49  and  _51
REMARK   22  A    between atoms: _51  and  _52
REMARK   23  A    between atoms: _54  and  _56
REMARK   24  A    between atoms: _56  and  _57
REMARK   25  A    between atoms: _56  and  _59
REMARK   26  A    between atoms: _59  and  _60
REMARK   27  A    between atoms: _63  and  _65
REMARK   28  A    between atoms: _65  and  _66
REMARK   29  A    between atoms: _65  and  _68
REMARK   30  A    between atoms: _68  and  _69
REMARK   31  A    between atoms: _69  and  _70
REMARK   32  A    between atoms: _75  and  _77
REMARK   33  A    between atoms: _77  and  _78
REMARK   34  A    between atoms: _77  and  _80
REMARK   35  A    between atoms: _80  and  _81
REMARK   36  A    between atoms: _81  and  _82
REMARK   37  A    between atoms: _87  and  _89
REMARK   38  A    between atoms: _89  and  _90
REMARK   39  A    between atoms: _89  and  _92
REMARK   40  A    between atoms: _92  and  _93
REMARK   41  A    between atoms: _95  and  _97
REMARK   42  A    between atoms: _97  and  _98
REMARK   43  A    between atoms: _97  and  _100
REMARK   44  A    between atoms: _100  and  _101
REMARK   45  A    between atoms: _104  and  _106
REMARK   46  A    between atoms: _106  and  _107
REMARK   47  A    between atoms: _106  and  _109
REMARK   48  A    between atoms: _112  and  _114
REMARK   49  A    between atoms: _114  and  _115
REMARK   50  A    between atoms: _114  and  _117
REMARK   51  A    between atoms: _117  and  _118
REMARK   52  A    between atoms: _123  and  _125
REMARK   53  A    between atoms: _125  and  _126
REMARK   54  A    between atoms: _125  and  _128
REMARK   55  A    between atoms: _128  and  _129
REMARK   56  A    between atoms: _129  and  _130
REMARK   57  A    between atoms: _130  and  _131
REMARK   58  A    between atoms: _140  and  _142
REMARK   59  A    between atoms: _142  and  _143
REMARK   60  A    between atoms: _142  and  _145
REMARK   61  A    between atoms: _145  and  _146
REMARK   62  A    between atoms: _148  and  _150
REMARK   63  A    between atoms: _150  and  _151
REMARK   64  A    between atoms: _150  and  _153
REMARK   65  A    between atoms: _153  and  _154
REMARK   66  A    between atoms: _156  and  _158
REMARK   67  A    between atoms: _158  and  _159
REMARK   68  A    between atoms: _158  and  _161
REMARK   69  A    between atoms: _161  and  _162
REMARK   70  A    between atoms: _162  and  _163
REMARK   71  A    between atoms: _166  and  _168
REMARK   72  A    between atoms: _168  and  _169
REMARK   73  A    between atoms: _168  and  _171
REMARK   74  A    between atoms: _171  and  _172
REMARK   75  A    between atoms: _175  and  _177
REMARK   76  A    between atoms: _177  and  _178
REMARK   77  A    between atoms: _180  and  _182
REMARK   78  A    between atoms: _182  and  _183
REMARK   79  A    between atoms: _182  and  _185
REMARK   80  A    between atoms: _185  and  _186
REMARK   81  A    between atoms: _189  and  _191
REMARK   82  A    between atoms: _200  and  _203
REMARK   83  A    between atoms: _203  and  _204
REMARK   84  A    between atoms: _211  and  _212
REMARK   85  A    between atoms: _218  and  _220
REMARK   86  A    between atoms: _220  and  _221
REMARK   87  A    between atoms: _220  and  _223
REMARK   88  A    between atoms: _223  and  _224
REMARK   89  A    between atoms: _229  and  _230
REMARK   90  A    between atoms: _232  and  _234
REMARK   91  A    between atoms: _238  and  _240
REMARK   92  A    between atoms: _245  and  _246
REMARK   93  A    between atoms: _252  and  _254
REMARK   94  A    between atoms: _254  and  _255
REMARK                            x       y       z     vdW  Elec       q    Type
REMARK                         _______ _______ _______ _____ _____    ______ ____
ROOT
ATOM      1  O   HOH     1      38.929  -5.190  -3.818  0.00  0.00    +0.000 OA
ENDROOT
TORSDOF 0
REMARK  Name = ../refined-set-2016/2jdk/2jdk_pocket.pdb
REMARK  94 active torsions:
REMARK  status: ('A' for Active; 'I' for Inactive)
REMARK    1  A    between atoms: _1  and  _3
REMARK    2  A    between atoms: _3  and  _4
REMARK    3  A    between atoms: _3  and  _6
REMARK    4  A    between atoms: _6  and  _7
REMARK    5  A    between atoms: _10  and  _12
REMARK    6  A    between atoms: _12  and  _13
REMARK    7  A    between atoms: _16  and  _18
REMARK    8  A    between atoms: _18  and  _19
REMARK    9  A    between atoms: _22  and  _24
REMARK   10  A    between atoms: _24  and  _25
REMARK   11  A    between atoms: _24  and  _27
REMARK   12  A    between atoms: _27  and  _28
REMARK   13  A    between atoms: _33  and  _35
REMARK   14  A    between atoms: _35  and  _36
REMARK   15  A    between atoms: _35  and  _38
REMARK   16  A    between atoms: _38  and  _39
REMARK   17  A    between atoms: _41  and  _43
REMARK   18  A    between atoms: _43  and  _44
REMARK   19  A    between atoms: _43  and  _46
REMARK   20  A    between atoms: _46  and  _47
REMARK   21  A    between atoms: _49  and  _51
REMARK   22  A    between atoms: _51  and  _52
REMARK   23  A    between atoms: _54  and  _56
REMARK   24  A    between atoms: _56  and  _57
REMARK   25  A    between atoms: _56  and  _59
REMARK   26  A    between atoms: _59  and  _60
REMARK   27  A    between atoms: _63  and  _65
REMARK   28  A    between atoms: _65  and  _66
REMARK   29  A    between atoms: _65  and  _68
REMARK   30  A    between atoms: _68  and  _69
REMARK   31  A    between atoms: _69  and  _70
REMARK   32  A    between atoms: _75  and  _77
REMARK   33  A    between atoms: _77  and  _78
REMARK   34  A    between atoms: _77  and  _80
REMARK   35  A    between atoms: _80  and  _81
REMARK   36  A    between atoms: _81  and  _82
REMARK   37  A    between atoms: _87  and  _89
REMARK   38  A    between atoms: _89  and  _90
REMARK   39  A    between atoms: _89  and  _92
REMARK   40  A    between atoms: _92  and  _93
REMARK   41  A    between atoms: _95  and  _97
REMARK   42  A    between atoms: _97  and  _98
REMARK   43  A    between atoms: _97  and  _100
REMARK   44  A    between atoms: _100  and  _101
REMARK   45  A    between atoms: _104  and  _106
REMARK   46  A    between atoms: _106  and  _107
REMARK   47  A    between atoms: _106  and  _109
REMARK   48  A    between atoms: _112  and  _114
REMARK   49  A    between atoms: _114  and  _115
REMARK   50  A    between atoms: _114  and  _117
REMARK   51  A    between atoms: _117  and  _118
REMARK   52  A    between atoms: _123  and  _125
REMARK   53  A    between atoms: _125  and  _126
REMARK   54  A    between atoms: _125  and  _128
REMARK   55  A    between atoms: _128  and  _129
REMARK   56  A    between atoms: _129  and  _130
REMARK   57  A    between atoms: _130  and  _131
REMARK   58  A    between atoms: _140  and  _142
REMARK   59  A    between atoms: _142  and  _143
REMARK   60  A    between atoms: _142  and  _145
REMARK   61  A    between atoms: _145  and  _146
REMARK   62  A    between atoms: _148  and  _150
REMARK   63  A    between atoms: _150  and  _151
REMARK   64  A    between atoms: _150  and  _153
REMARK   65  A    between atoms: _153  and  _154
REMARK   66  A    between atoms: _156  and  _158
REMARK   67  A    between atoms: _158  and  _159
REMARK   68  A    between atoms: _158  and  _161
REMARK   69  A    between atoms: _161  and  _162
REMARK   70  A    between atoms: _162  and  _163
REMARK   71  A    between atoms: _166  and  _168
REMARK   72  A    between atoms: _168  and  _169
REMARK   73  A    between atoms: _168  and  _171
REMARK   74  A    between atoms: _171  and  _172
REMARK   75  A    between atoms: _175  and  _177
REMARK   76  A    between atoms: _177  and  _178
REMARK   77  A    between atoms: _180  and  _182
REMARK   78  A    between atoms: _182  and  _183
REMARK   79  A    between atoms: _182  and  _185
REMARK   80  A    between atoms: _185  and  _186
REMARK   81  A    between atoms: _189  and  _191
REMARK   82  A    between atoms: _200  and  _203
REMARK   83  A    between atoms: _203  and  _204
REMARK   84  A    between atoms: _211  and  _212
REMARK   85  A    between atoms: _218  and  _220
REMARK   86  A    between atoms: _220  and  _221
REMARK   87  A    between atoms: _220  and  _223
REMARK   88  A    between atoms: _223  and  _224
REMARK   89  A    between atoms: _229  and  _230
REMARK   90  A    between atoms: _232  and  _234
REMARK   91  A    between atoms: _238  and  _240
REMARK   92  A    between atoms: _245  and  _246
REMARK   93  A    between atoms: _252  and  _254
REMARK   94  A    between atoms: _254  and  _255
REMARK                            x       y       z     vdW  Elec       q    Type
REMARK                         _______ _______ _______ _____ _____    ______ ____
ROOT
ATOM      1  O   HOH     1      44.831  -2.556  -1.893  0.00  0.00    +0.000 OA
ENDROOT
TORSDOF 0
REMARK  Name = ../refined-set-2016/2jdk/2jdk_pocket.pdb
REMARK  94 active torsions:
REMARK  status: ('A' for Active; 'I' for Inactive)
REMARK    1  A    between atoms: _1  and  _3
REMARK    2  A    between atoms: _3  and  _4
REMARK    3  A    between atoms: _3  and  _6
REMARK    4  A    between atoms: _6  and  _7
REMARK    5  A    between atoms: _10  and  _12
REMARK    6  A    between atoms: _12  and  _13
REMARK    7  A    between atoms: _16  and  _18
REMARK    8  A    between atoms: _18  and  _19
REMARK    9  A    between atoms: _22  and  _24
REMARK   10  A    between atoms: _24  and  _25
REMARK   11  A    between atoms: _24  and  _27
REMARK   12  A    between atoms: _27  and  _28
REMARK   13  A    between atoms: _33  and  _35
REMARK   14  A    between atoms: _35  and  _36
REMARK   15  A    between atoms: _35  and  _38
REMARK   16  A    between atoms: _38  and  _39
REMARK   17  A    between atoms: _41  and  _43
REMARK   18  A    between atoms: _43  and  _44
REMARK   19  A    between atoms: _43  and  _46
REMARK   20  A    between atoms: _46  and  _47
REMARK   21  A    between atoms: _49  and  _51
REMARK   22  A    between atoms: _51  and  _52
REMARK   23  A    between atoms: _54  and  _56
REMARK   24  A    between atoms: _56  and  _57
REMARK   25  A    between atoms: _56  and  _59
REMARK   26  A    between atoms: _59  and  _60
REMARK   27  A    between atoms: _63  and  _65
REMARK   28  A    between atoms: _65  and  _66
REMARK   29  A    between atoms: _65  and  _68
REMARK   30  A    between atoms: _68  and  _69
REMARK   31  A    between atoms: _69  and  _70
REMARK   32  A    between atoms: _75  and  _77
REMARK   33  A    between atoms: _77  and  _78
REMARK   34  A    between atoms: _77  and  _80
REMARK   35  A    between atoms: _80  and  _81
REMARK   36  A    between atoms: _81  and  _82
REMARK   37  A    between atoms: _87  and  _89
REMARK   38  A    between atoms: _89  and  _90
REMARK   39  A    between atoms: _89  and  _92
REMARK   40  A    between atoms: _92  and  _93
REMARK   41  A    between atoms: _95  and  _97
REMARK   42  A    between atoms: _97  and  _98
REMARK   43  A    between atoms: _97  and  _100
REMARK   44  A    between atoms: _100  and  _101
REMARK   45  A    between atoms: _104  and  _106
REMARK   46  A    between atoms: _106  and  _107
REMARK   47  A    between atoms: _106  and  _109
REMARK   48  A    between atoms: _112  and  _114
REMARK   49  A    between atoms: _114  and  _115
REMARK   50  A    between atoms: _114  and  _117
REMARK   51  A    between atoms: _117  and  _118
REMARK   52  A    between atoms: _123  and  _125
REMARK   53  A    between atoms: _125  and  _126
REMARK   54  A    between atoms: _125  and  _128
REMARK   55  A    between atoms: _128  and  _129
REMARK   56  A    between atoms: _129  and  _130
REMARK   57  A    between atoms: _130  and  _131
REMARK   58  A    between atoms: _140  and  _142
REMARK   59  A    between atoms: _142  and  _143
REMARK   60  A    between atoms: _142  and  _145
REMARK   61  A    between atoms: _145  and  _146
REMARK   62  A    between atoms: _148  and  _150
REMARK   63  A    between atoms: _150  and  _151
REMARK   64  A    between atoms: _150  and  _153
REMARK   65  A    between atoms: _153  and  _154
REMARK   66  A    between atoms: _156  and  _158
REMARK   67  A    between atoms: _158  and  _159
REMARK   68  A    between atoms: _158  and  _161
REMARK   69  A    between atoms: _161  and  _162
REMARK   70  A    between atoms: _162  and  _163
REMARK   71  A    between atoms: _166  and  _168
REMARK   72  A    between atoms: _168  and  _169
REMARK   73  A    between atoms: _168  and  _171
REMARK   74  A    between atoms: _171  and  _172
REMARK   75  A    between atoms: _175  and  _177
REMARK   76  A    between atoms: _177  and  _178
REMARK   77  A    between atoms: _180  and  _182
REMARK   78  A    between atoms: _182  and  _183
REMARK   79  A    between atoms: _182  and  _185
REMARK   80  A    between atoms: _185  and  _186
REMARK   81  A    between atoms: _189  and  _191
REMARK   82  A    between atoms: _200  and  _203
REMARK   83  A    between atoms: _203  and  _204
REMARK   84  A    between atoms: _211  and  _212
REMARK   85  A    between atoms: _218  and  _220
REMARK   86  A    between atoms: _220  and  _221
REMARK   87  A    between atoms: _220  and  _223
REMARK   88  A    between atoms: _223  and  _224
REMARK   89  A    between atoms: _229  and  _230
REMARK   90  A    between atoms: _232  and  _234
REMARK   91  A    between atoms: _238  and  _240
REMARK   92  A    between atoms: _245  and  _246
REMARK   93  A    between atoms: _252  and  _254
REMARK   94  A    between atoms: _254  and  _255
REMARK                            x       y       z     vdW  Elec       q    Type
REMARK                         _______ _______ _______ _____ _____    ______ ____
ROOT
ATOM      1  O   HOH     1      43.625  13.061  -0.245  0.00  0.00    +0.000 OA
ENDROOT
TORSDOF 0
REMARK  Name = ../refined-set-2016/2jdk/2jdk_pocket.pdb
REMARK  94 active torsions:
REMARK  status: ('A' for Active; 'I' for Inactive)
REMARK    1  A    between atoms: _1  and  _3
REMARK    2  A    between atoms: _3  and  _4
REMARK    3  A    between atoms: _3  and  _6
REMARK    4  A    between atoms: _6  and  _7
REMARK    5  A    between atoms: _10  and  _12
REMARK    6  A    between atoms: _12  and  _13
REMARK    7  A    between atoms: _16  and  _18
REMARK    8  A    between atoms: _18  and  _19
REMARK    9  A    between atoms: _22  and  _24
REMARK   10  A    between atoms: _24  and  _25
REMARK   11  A    between atoms: _24  and  _27
REMARK   12  A    between atoms: _27  and  _28
REMARK   13  A    between atoms: _33  and  _35
REMARK   14  A    between atoms: _35  and  _36
REMARK   15  A    between atoms: _35  and  _38
REMARK   16  A    between atoms: _38  and  _39
REMARK   17  A    between atoms: _41  and  _43
REMARK   18  A    between atoms: _43  and  _44
REMARK   19  A    between atoms: _43  and  _46
REMARK   20  A    between atoms: _46  and  _47
REMARK   21  A    between atoms: _49  and  _51
REMARK   22  A    between atoms: _51  and  _52
REMARK   23  A    between atoms: _54  and  _56
REMARK   24  A    between atoms: _56  and  _57
REMARK   25  A    between atoms: _56  and  _59
REMARK   26  A    between atoms: _59  and  _60
REMARK   27  A    between atoms: _63  and  _65
REMARK   28  A    between atoms: _65  and  _66
REMARK   29  A    between atoms: _65  and  _68
REMARK   30  A    between atoms: _68  and  _69
REMARK   31  A    between atoms: _69  and  _70
REMARK   32  A    between atoms: _75  and  _77
REMARK   33  A    between atoms: _77  and  _78
REMARK   34  A    between atoms: _77  and  _80
REMARK   35  A    between atoms: _80  and  _81
REMARK   36  A    between atoms: _81  and  _82
REMARK   37  A    between atoms: _87  and  _89
REMARK   38  A    between atoms: _89  and  _90
REMARK   39  A    between atoms: _89  and  _92
REMARK   40  A    between atoms: _92  and  _93
REMARK   41  A    between atoms: _95  and  _97
REMARK   42  A    between atoms: _97  and  _98
REMARK   43  A    between atoms: _97  and  _100
REMARK   44  A    between atoms: _100  and  _101
REMARK   45  A    between atoms: _104  and  _106
REMARK   46  A    between atoms: _106  and  _107
REMARK   47  A    between atoms: _106  and  _109
REMARK   48  A    between atoms: _112  and  _114
REMARK   49  A    between atoms: _114  and  _115
REMARK   50  A    between atoms: _114  and  _117
REMARK   51  A    between atoms: _117  and  _118
REMARK   52  A    between atoms: _123  and  _125
REMARK   53  A    between atoms: _125  and  _126
REMARK   54  A    between atoms: _125  and  _128
REMARK   55  A    between atoms: _128  and  _129
REMARK   56  A    between atoms: _129  and  _130
REMARK   57  A    between atoms: _130  and  _131
REMARK   58  A    between atoms: _140  and  _142
REMARK   59  A    between atoms: _142  and  _143
REMARK   60  A    between atoms: _142  and  _145
REMARK   61  A    between atoms: _145  and  _146
REMARK   62  A    between atoms: _148  and  _150
REMARK   63  A    between atoms: _150  and  _151
REMARK   64  A    between atoms: _150  and  _153
REMARK   65  A    between atoms: _153  and  _154
REMARK   66  A    between atoms: _156  and  _158
REMARK   67  A    between atoms: _158  and  _159
REMARK   68  A    between atoms: _158  and  _161
REMARK   69  A    between atoms: _161  and  _162
REMARK   70  A    between atoms: _162  and  _163
REMARK   71  A    between atoms: _166  and  _168
REMARK   72  A    between atoms: _168  and  _169
REMARK   73  A    between atoms: _168  and  _171
REMARK   74  A    between atoms: _171  and  _172
REMARK   75  A    between atoms: _175  and  _177
REMARK   76  A    between atoms: _177  and  _178
REMARK   77  A    between atoms: _180  and  _182
REMARK   78  A    between atoms: _182  and  _183
REMARK   79  A    between atoms: _182  and  _185
REMARK   80  A    between atoms: _185  and  _186
REMARK   81  A    between atoms: _189  and  _191
REMARK   82  A    between atoms: _200  and  _203
REMARK   83  A    between atoms: _203  and  _204
REMARK   84  A    between atoms: _211  and  _212
REMARK   85  A    between atoms: _218  and  _220
REMARK   86  A    between atoms: _220  and  _221
REMARK   87  A    between atoms: _220  and  _223
REMARK   88  A    between atoms: _223  and  _224
REMARK   89  A    between atoms: _229  and  _230
REMARK   90  A    between atoms: _232  and  _234
REMARK   91  A    between atoms: _238  and  _240
REMARK   92  A    between atoms: _245  and  _246
REMARK   93  A    between atoms: _252  and  _254
REMARK   94  A    between atoms: _254  and  _255
REMARK                            x       y       z     vdW  Elec       q    Type
REMARK                         _______ _______ _______ _____ _____    ______ ____
ROOT
ATOM      1  O   HOH     1      45.749  11.456  -0.965  0.00  0.00    +0.000 OA
ENDROOT
TORSDOF 0
REMARK  Name = ../refined-set-2016/2jdk/2jdk_pocket.pdb
REMARK  94 active torsions:
REMARK  status: ('A' for Active; 'I' for Inactive)
REMARK    1  A    between atoms: _1  and  _3
REMARK    2  A    between atoms: _3  and  _4
REMARK    3  A    between atoms: _3  and  _6
REMARK    4  A    between atoms: _6  and  _7
REMARK    5  A    between atoms: _10  and  _12
REMARK    6  A    between atoms: _12  and  _13
REMARK    7  A    between atoms: _16  and  _18
REMARK    8  A    between atoms: _18  and  _19
REMARK    9  A    between atoms: _22  and  _24
REMARK   10  A    between atoms: _24  and  _25
REMARK   11  A    between atoms: _24  and  _27
REMARK   12  A    between atoms: _27  and  _28
REMARK   13  A    between atoms: _33  and  _35
REMARK   14  A    between atoms: _35  and  _36
REMARK   15  A    between atoms: _35  and  _38
REMARK   16  A    between atoms: _38  and  _39
REMARK   17  A    between atoms: _41  and  _43
REMARK   18  A    between atoms: _43  and  _44
REMARK   19  A    between atoms: _43  and  _46
REMARK   20  A    between atoms: _46  and  _47
REMARK   21  A    between atoms: _49  and  _51
REMARK   22  A    between atoms: _51  and  _52
REMARK   23  A    between atoms: _54  and  _56
REMARK   24  A    between atoms: _56  and  _57
REMARK   25  A    between atoms: _56  and  _59
REMARK   26  A    between atoms: _59  and  _60
REMARK   27  A    between atoms: _63  and  _65
REMARK   28  A    between atoms: _65  and  _66
REMARK   29  A    between atoms: _65  and  _68
REMARK   30  A    between atoms: _68  and  _69
REMARK   31  A    between atoms: _69  and  _70
REMARK   32  A    between atoms: _75  and  _77
REMARK   33  A    between atoms: _77  and  _78
REMARK   34  A    between atoms: _77  and  _80
REMARK   35  A    between atoms: _80  and  _81
REMARK   36  A    between atoms: _81  and  _82
REMARK   37  A    between atoms: _87  and  _89
REMARK   38  A    between atoms: _89  and  _90
REMARK   39  A    between atoms: _89  and  _92
REMARK   40  A    between atoms: _92  and  _93
REMARK   41  A    between atoms: _95  and  _97
REMARK   42  A    between atoms: _97  and  _98
REMARK   43  A    between atoms: _97  and  _100
REMARK   44  A    between atoms: _100  and  _101
REMARK   45  A    between atoms: _104  and  _106
REMARK   46  A    between atoms: _106  and  _107
REMARK   47  A    between atoms: _106  and  _109
REMARK   48  A    between atoms: _112  and  _114
REMARK   49  A    between atoms: _114  and  _115
REMARK   50  A    between atoms: _114  and  _117
REMARK   51  A    between atoms: _117  and  _118
REMARK   52  A    between atoms: _123  and  _125
REMARK   53  A    between atoms: _125  and  _126
REMARK   54  A    between atoms: _125  and  _128
REMARK   55  A    between atoms: _128  and  _129
REMARK   56  A    between atoms: _129  and  _130
REMARK   57  A    between atoms: _130  and  _131
REMARK   58  A    between atoms: _140  and  _142
REMARK   59  A    between atoms: _142  and  _143
REMARK   60  A    between atoms: _142  and  _145
REMARK   61  A    between atoms: _145  and  _146
REMARK   62  A    between atoms: _148  and  _150
REMARK   63  A    between atoms: _150  and  _151
REMARK   64  A    between atoms: _150  and  _153
REMARK   65  A    between atoms: _153  and  _154
REMARK   66  A    between atoms: _156  and  _158
REMARK   67  A    between atoms: _158  and  _159
REMARK   68  A    between atoms: _158  and  _161
REMARK   69  A    between atoms: _161  and  _162
REMARK   70  A    between atoms: _162  and  _163
REMARK   71  A    between atoms: _166  and  _168
REMARK   72  A    between atoms: _168  and  _169
REMARK   73  A    between atoms: _168  and  _171
REMARK   74  A    between atoms: _171  and  _172
REMARK   75  A    between atoms: _175  and  _177
REMARK   76  A    between atoms: _177  and  _178
REMARK   77  A    between atoms: _180  and  _182
REMARK   78  A    between atoms: _182  and  _183
REMARK   79  A    between atoms: _182  and  _185
REMARK   80  A    between atoms: _185  and  _186
REMARK   81  A    between atoms: _189  and  _191
REMARK   82  A    between atoms: _200  and  _203
REMARK   83  A    between atoms: _203  and  _204
REMARK   84  A    between atoms: _211  and  _212
REMARK   85  A    between atoms: _218  and  _220
REMARK   86  A    between atoms: _220  and  _221
REMARK   87  A    between atoms: _220  and  _223
REMARK   88  A    between atoms: _223  and  _224
REMARK   89  A    between atoms: _229  and  _230
REMARK   90  A    between atoms: _232  and  _234
REMARK   91  A    between atoms: _238  and  _240
REMARK   92  A    between atoms: _245  and  _246
REMARK   93  A    between atoms: _252  and  _254
REMARK   94  A    between atoms: _254  and  _255
REMARK                            x       y       z     vdW  Elec       q    Type
REMARK                         _______ _______ _______ _____ _____    ______ ____
ROOT
ATOM      1  O   HOH     1      36.890  13.260   0.558  0.00  0.00    +0.000 OA
ENDROOT
TORSDOF 0
REMARK  Name = ../refined-set-2016/2jdk/2jdk_pocket.pdb
REMARK  94 active torsions:
REMARK  status: ('A' for Active; 'I' for Inactive)
REMARK    1  A    between atoms: _1  and  _3
REMARK    2  A    between atoms: _3  and  _4
REMARK    3  A    between atoms: _3  and  _6
REMARK    4  A    between atoms: _6  and  _7
REMARK    5  A    between atoms: _10  and  _12
REMARK    6  A    between atoms: _12  and  _13
REMARK    7  A    between atoms: _16  and  _18
REMARK    8  A    between atoms: _18  and  _19
REMARK    9  A    between atoms: _22  and  _24
REMARK   10  A    between atoms: _24  and  _25
REMARK   11  A    between atoms: _24  and  _27
REMARK   12  A    between atoms: _27  and  _28
REMARK   13  A    between atoms: _33  and  _35
REMARK   14  A    between atoms: _35  and  _36
REMARK   15  A    between atoms: _35  and  _38
REMARK   16  A    between atoms: _38  and  _39
REMARK   17  A    between atoms: _41  and  _43
REMARK   18  A    between atoms: _43  and  _44
REMARK   19  A    between atoms: _43  and  _46
REMARK   20  A    between atoms: _46  and  _47
REMARK   21  A    between atoms: _49  and  _51
REMARK   22  A    between atoms: _51  and  _52
REMARK   23  A    between atoms: _54  and  _56
REMARK   24  A    between atoms: _56  and  _57
REMARK   25  A    between atoms: _56  and  _59
REMARK   26  A    between atoms: _59  and  _60
REMARK   27  A    between atoms: _63  and  _65
REMARK   28  A    between atoms: _65  and  _66
REMARK   29  A    between atoms: _65  and  _68
REMARK   30  A    between atoms: _68  and  _69
REMARK   31  A    between atoms: _69  and  _70
REMARK   32  A    between atoms: _75  and  _77
REMARK   33  A    between atoms: _77  and  _78
REMARK   34  A    between atoms: _77  and  _80
REMARK   35  A    between atoms: _80  and  _81
REMARK   36  A    between atoms: _81  and  _82
REMARK   37  A    between atoms: _87  and  _89
REMARK   38  A    between atoms: _89  and  _90
REMARK   39  A    between atoms: _89  and  _92
REMARK   40  A    between atoms: _92  and  _93
REMARK   41  A    between atoms: _95  and  _97
REMARK   42  A    between atoms: _97  and  _98
REMARK   43  A    between atoms: _97  and  _100
REMARK   44  A    between atoms: _100  and  _101
REMARK   45  A    between atoms: _104  and  _106
REMARK   46  A    between atoms: _106  and  _107
REMARK   47  A    between atoms: _106  and  _109
REMARK   48  A    between atoms: _112  and  _114
REMARK   49  A    between atoms: _114  and  _115
REMARK   50  A    between atoms: _114  and  _117
REMARK   51  A    between atoms: _117  and  _118
REMARK   52  A    between atoms: _123  and  _125
REMARK   53  A    between atoms: _125  and  _126
REMARK   54  A    between atoms: _125  and  _128
REMARK   55  A    between atoms: _128  and  _129
REMARK   56  A    between atoms: _129  and  _130
REMARK   57  A    between atoms: _130  and  _131
REMARK   58  A    between atoms: _140  and  _142
REMARK   59  A    between atoms: _142  and  _143
REMARK   60  A    between atoms: _142  and  _145
REMARK   61  A    between atoms: _145  and  _146
REMARK   62  A    between atoms: _148  and  _150
REMARK   63  A    between atoms: _150  and  _151
REMARK   64  A    between atoms: _150  and  _153
REMARK   65  A    between atoms: _153  and  _154
REMARK   66  A    between atoms: _156  and  _158
REMARK   67  A    between atoms: _158  and  _159
REMARK   68  A    between atoms: _158  and  _161
REMARK   69  A    between atoms: _161  and  _162
REMARK   70  A    between atoms: _162  and  _163
REMARK   71  A    between atoms: _166  and  _168
REMARK   72  A    between atoms: _168  and  _169
REMARK   73  A    between atoms: _168  and  _171
REMARK   74  A    between atoms: _171  and  _172
REMARK   75  A    between atoms: _175  and  _177
REMARK   76  A    between atoms: _177  and  _178
REMARK   77  A    between atoms: _180  and  _182
REMARK   78  A    between atoms: _182  and  _183
REMARK   79  A    between atoms: _182  and  _185
REMARK   80  A    between atoms: _185  and  _186
REMARK   81  A    between atoms: _189  and  _191
REMARK   82  A    between atoms: _200  and  _203
REMARK   83  A    between atoms: _203  and  _204
REMARK   84  A    between atoms: _211  and  _212
REMARK   85  A    between atoms: _218  and  _220
REMARK   86  A    between atoms: _220  and  _221
REMARK   87  A    between atoms: _220  and  _223
REMARK   88  A    between atoms: _223  and  _224
REMARK   89  A    between atoms: _229  and  _230
REMARK   90  A    between atoms: _232  and  _234
REMARK   91  A    between atoms: _238  and  _240
REMARK   92  A    between atoms: _245  and  _246
REMARK   93  A    between atoms: _252  and  _254
REMARK   94  A    between atoms: _254  and  _255
REMARK                            x       y       z     vdW  Elec       q    Type
REMARK                         _______ _______ _______ _____ _____    ______ ____
ROOT
ATOM      1  O   HOH     1      36.398  12.795  -5.125  0.00  0.00    +0.000 OA
ENDROOT
TORSDOF 0
REMARK  Name = ../refined-set-2016/2jdk/2jdk_pocket.pdb
REMARK  94 active torsions:
REMARK  status: ('A' for Active; 'I' for Inactive)
REMARK    1  A    between atoms: _1  and  _3
REMARK    2  A    between atoms: _3  and  _4
REMARK    3  A    between atoms: _3  and  _6
REMARK    4  A    between atoms: _6  and  _7
REMARK    5  A    between atoms: _10  and  _12
REMARK    6  A    between atoms: _12  and  _13
REMARK    7  A    between atoms: _16  and  _18
REMARK    8  A    between atoms: _18  and  _19
REMARK    9  A    between atoms: _22  and  _24
REMARK   10  A    between atoms: _24  and  _25
REMARK   11  A    between atoms: _24  and  _27
REMARK   12  A    between atoms: _27  and  _28
REMARK   13  A    between atoms: _33  and  _35
REMARK   14  A    between atoms: _35  and  _36
REMARK   15  A    between atoms: _35  and  _38
REMARK   16  A    between atoms: _38  and  _39
REMARK   17  A    between atoms: _41  and  _43
REMARK   18  A    between atoms: _43  and  _44
REMARK   19  A    between atoms: _43  and  _46
REMARK   20  A    between atoms: _46  and  _47
REMARK   21  A    between atoms: _49  and  _51
REMARK   22  A    between atoms: _51  and  _52
REMARK   23  A    between atoms: _54  and  _56
REMARK   24  A    between atoms: _56  and  _57
REMARK   25  A    between atoms: _56  and  _59
REMARK   26  A    between atoms: _59  and  _60
REMARK   27  A    between atoms: _63  and  _65
REMARK   28  A    between atoms: _65  and  _66
REMARK   29  A    between atoms: _65  and  _68
REMARK   30  A    between atoms: _68  and  _69
REMARK   31  A    between atoms: _69  and  _70
REMARK   32  A    between atoms: _75  and  _77
REMARK   33  A    between atoms: _77  and  _78
REMARK   34  A    between atoms: _77  and  _80
REMARK   35  A    between atoms: _80  and  _81
REMARK   36  A    between atoms: _81  and  _82
REMARK   37  A    between atoms: _87  and  _89
REMARK   38  A    between atoms: _89  and  _90
REMARK   39  A    between atoms: _89  and  _92
REMARK   40  A    between atoms: _92  and  _93
REMARK   41  A    between atoms: _95  and  _97
REMARK   42  A    between atoms: _97  and  _98
REMARK   43  A    between atoms: _97  and  _100
REMARK   44  A    between atoms: _100  and  _101
REMARK   45  A    between atoms: _104  and  _106
REMARK   46  A    between atoms: _106  and  _107
REMARK   47  A    between atoms: _106  and  _109
REMARK   48  A    between atoms: _112  and  _114
REMARK   49  A    between atoms: _114  and  _115
REMARK   50  A    between atoms: _114  and  _117
REMARK   51  A    between atoms: _117  and  _118
REMARK   52  A    between atoms: _123  and  _125
REMARK   53  A    between atoms: _125  and  _126
REMARK   54  A    between atoms: _125  and  _128
REMARK   55  A    between atoms: _128  and  _129
REMARK   56  A    between atoms: _129  and  _130
REMARK   57  A    between atoms: _130  and  _131
REMARK   58  A    between atoms: _140  and  _142
REMARK   59  A    between atoms: _142  and  _143
REMARK   60  A    between atoms: _142  and  _145
REMARK   61  A    between atoms: _145  and  _146
REMARK   62  A    between atoms: _148  and  _150
REMARK   63  A    between atoms: _150  and  _151
REMARK   64  A    between atoms: _150  and  _153
REMARK   65  A    between atoms: _153  and  _154
REMARK   66  A    between atoms: _156  and  _158
REMARK   67  A    between atoms: _158  and  _159
REMARK   68  A    between atoms: _158  and  _161
REMARK   69  A    between atoms: _161  and  _162
REMARK   70  A    between atoms: _162  and  _163
REMARK   71  A    between atoms: _166  and  _168
REMARK   72  A    between atoms: _168  and  _169
REMARK   73  A    between atoms: _168  and  _171
REMARK   74  A    between atoms: _171  and  _172
REMARK   75  A    between atoms: _175  and  _177
REMARK   76  A    between atoms: _177  and  _178
REMARK   77  A    between atoms: _180  and  _182
REMARK   78  A    between atoms: _182  and  _183
REMARK   79  A    between atoms: _182  and  _185
REMARK   80  A    between atoms: _185  and  _186
REMARK   81  A    between atoms: _189  and  _191
REMARK   82  A    between atoms: _200  and  _203
REMARK   83  A    between atoms: _203  and  _204
REMARK   84  A    between atoms: _211  and  _212
REMARK   85  A    between atoms: _218  and  _220
REMARK   86  A    between atoms: _220  and  _221
REMARK   87  A    between atoms: _220  and  _223
REMARK   88  A    between atoms: _223  and  _224
REMARK   89  A    between atoms: _229  and  _230
REMARK   90  A    between atoms: _232  and  _234
REMARK   91  A    between atoms: _238  and  _240
REMARK   92  A    between atoms: _245  and  _246
REMARK   93  A    between atoms: _252  and  _254
REMARK   94  A    between atoms: _254  and  _255
REMARK                            x       y       z     vdW  Elec       q    Type
REMARK                         _______ _______ _______ _____ _____    ______ ____
ROOT
ATOM      1  O   HOH     1      34.874  13.022  -2.230  0.00  0.00    +0.000 OA
ENDROOT
TORSDOF 0
REMARK  Name = ../refined-set-2016/2jdk/2jdk_pocket.pdb
REMARK  94 active torsions:
REMARK  status: ('A' for Active; 'I' for Inactive)
REMARK    1  A    between atoms: _1  and  _3
REMARK    2  A    between atoms: _3  and  _4
REMARK    3  A    between atoms: _3  and  _6
REMARK    4  A    between atoms: _6  and  _7
REMARK    5  A    between atoms: _10  and  _12
REMARK    6  A    between atoms: _12  and  _13
REMARK    7  A    between atoms: _16  and  _18
REMARK    8  A    between atoms: _18  and  _19
REMARK    9  A    between atoms: _22  and  _24
REMARK   10  A    between atoms: _24  and  _25
REMARK   11  A    between atoms: _24  and  _27
REMARK   12  A    between atoms: _27  and  _28
REMARK   13  A    between atoms: _33  and  _35
REMARK   14  A    between atoms: _35  and  _36
REMARK   15  A    between atoms: _35  and  _38
REMARK   16  A    between atoms: _38  and  _39
REMARK   17  A    between atoms: _41  and  _43
REMARK   18  A    between atoms: _43  and  _44
REMARK   19  A    between atoms: _43  and  _46
REMARK   20  A    between atoms: _46  and  _47
REMARK   21  A    between atoms: _49  and  _51
REMARK   22  A    between atoms: _51  and  _52
REMARK   23  A    between atoms: _54  and  _56
REMARK   24  A    between atoms: _56  and  _57
REMARK   25  A    between atoms: _56  and  _59
REMARK   26  A    between atoms: _59  and  _60
REMARK   27  A    between atoms: _63  and  _65
REMARK   28  A    between atoms: _65  and  _66
REMARK   29  A    between atoms: _65  and  _68
REMARK   30  A    between atoms: _68  and  _69
REMARK   31  A    between atoms: _69  and  _70
REMARK   32  A    between atoms: _75  and  _77
REMARK   33  A    between atoms: _77  and  _78
REMARK   34  A    between atoms: _77  and  _80
REMARK   35  A    between atoms: _80  and  _81
REMARK   36  A    between atoms: _81  and  _82
REMARK   37  A    between atoms: _87  and  _89
REMARK   38  A    between atoms: _89  and  _90
REMARK   39  A    between atoms: _89  and  _92
REMARK   40  A    between atoms: _92  and  _93
REMARK   41  A    between atoms: _95  and  _97
REMARK   42  A    between atoms: _97  and  _98
REMARK   43  A    between atoms: _97  and  _100
REMARK   44  A    between atoms: _100  and  _101
REMARK   45  A    between atoms: _104  and  _106
REMARK   46  A    between atoms: _106  and  _107
REMARK   47  A    between atoms: _106  and  _109
REMARK   48  A    between atoms: _112  and  _114
REMARK   49  A    between atoms: _114  and  _115
REMARK   50  A    between atoms: _114  and  _117
REMARK   51  A    between atoms: _117  and  _118
REMARK   52  A    between atoms: _123  and  _125
REMARK   53  A    between atoms: _125  and  _126
REMARK   54  A    between atoms: _125  and  _128
REMARK   55  A    between atoms: _128  and  _129
REMARK   56  A    between atoms: _129  and  _130
REMARK   57  A    between atoms: _130  and  _131
REMARK   58  A    between atoms: _140  and  _142
REMARK   59  A    between atoms: _142  and  _143
REMARK   60  A    between atoms: _142  and  _145
REMARK   61  A    between atoms: _145  and  _146
REMARK   62  A    between atoms: _148  and  _150
REMARK   63  A    between atoms: _150  and  _151
REMARK   64  A    between atoms: _150  and  _153
REMARK   65  A    between atoms: _153  and  _154
REMARK   66  A    between atoms: _156  and  _158
REMARK   67  A    between atoms: _158  and  _159
REMARK   68  A    between atoms: _158  and  _161
REMARK   69  A    between atoms: _161  and  _162
REMARK   70  A    between atoms: _162  and  _163
REMARK   71  A    between atoms: _166  and  _168
REMARK   72  A    between atoms: _168  and  _169
REMARK   73  A    between atoms: _168  and  _171
REMARK   74  A    between atoms: _171  and  _172
REMARK   75  A    between atoms: _175  and  _177
REMARK   76  A    between atoms: _177  and  _178
REMARK   77  A    between atoms: _180  and  _182
REMARK   78  A    between atoms: _182  and  _183
REMARK   79  A    between atoms: _182  and  _185
REMARK   80  A    between atoms: _185  and  _186
REMARK   81  A    between atoms: _189  and  _191
REMARK   82  A    between atoms: _200  and  _203
REMARK   83  A    between atoms: _203  and  _204
REMARK   84  A    between atoms: _211  and  _212
REMARK   85  A    between atoms: _218  and  _220
REMARK   86  A    between atoms: _220  and  _221
REMARK   87  A    between atoms: _220  and  _223
REMARK   88  A    between atoms: _223  and  _224
REMARK   89  A    between atoms: _229  and  _230
REMARK   90  A    between atoms: _232  and  _234
REMARK   91  A    between atoms: _238  and  _240
REMARK   92  A    between atoms: _245  and  _246
REMARK   93  A    between atoms: _252  and  _254
REMARK   94  A    between atoms: _254  and  _255
REMARK                            x       y       z     vdW  Elec       q    Type
REMARK                         _______ _______ _______ _____ _____    ______ ____
ROOT
ATOM      1  O   HOH     1      39.525  12.034  -0.266  0.00  0.00    +0.000 OA
ENDROOT
TORSDOF 0
REMARK  Name = ../refined-set-2016/2jdk/2jdk_pocket.pdb
REMARK  94 active torsions:
REMARK  status: ('A' for Active; 'I' for Inactive)
REMARK    1  A    between atoms: _1  and  _3
REMARK    2  A    between atoms: _3  and  _4
REMARK    3  A    between atoms: _3  and  _6
REMARK    4  A    between atoms: _6  and  _7
REMARK    5  A    between atoms: _10  and  _12
REMARK    6  A    between atoms: _12  and  _13
REMARK    7  A    between atoms: _16  and  _18
REMARK    8  A    between atoms: _18  and  _19
REMARK    9  A    between atoms: _22  and  _24
REMARK   10  A    between atoms: _24  and  _25
REMARK   11  A    between atoms: _24  and  _27
REMARK   12  A    between atoms: _27  and  _28
REMARK   13  A    between atoms: _33  and  _35
REMARK   14  A    between atoms: _35  and  _36
REMARK   15  A    between atoms: _35  and  _38
REMARK   16  A    between atoms: _38  and  _39
REMARK   17  A    between atoms: _41  and  _43
REMARK   18  A    between atoms: _43  and  _44
REMARK   19  A    between atoms: _43  and  _46
REMARK   20  A    between atoms: _46  and  _47
REMARK   21  A    between atoms: _49  and  _51
REMARK   22  A    between atoms: _51  and  _52
REMARK   23  A    between atoms: _54  and  _56
REMARK   24  A    between atoms: _56  and  _57
REMARK   25  A    between atoms: _56  and  _59
REMARK   26  A    between atoms: _59  and  _60
REMARK   27  A    between atoms: _63  and  _65
REMARK   28  A    between atoms: _65  and  _66
REMARK   29  A    between atoms: _65  and  _68
REMARK   30  A    between atoms: _68  and  _69
REMARK   31  A    between atoms: _69  and  _70
REMARK   32  A    between atoms: _75  and  _77
REMARK   33  A    between atoms: _77  and  _78
REMARK   34  A    between atoms: _77  and  _80
REMARK   35  A    between atoms: _80  and  _81
REMARK   36  A    between atoms: _81  and  _82
REMARK   37  A    between atoms: _87  and  _89
REMARK   38  A    between atoms: _89  and  _90
REMARK   39  A    between atoms: _89  and  _92
REMARK   40  A    between atoms: _92  and  _93
REMARK   41  A    between atoms: _95  and  _97
REMARK   42  A    between atoms: _97  and  _98
REMARK   43  A    between atoms: _97  and  _100
REMARK   44  A    between atoms: _100  and  _101
REMARK   45  A    between atoms: _104  and  _106
REMARK   46  A    between atoms: _106  and  _107
REMARK   47  A    between atoms: _106  and  _109
REMARK   48  A    between atoms: _112  and  _114
REMARK   49  A    between atoms: _114  and  _115
REMARK   50  A    between atoms: _114  and  _117
REMARK   51  A    between atoms: _117  and  _118
REMARK   52  A    between atoms: _123  and  _125
REMARK   53  A    between atoms: _125  and  _126
REMARK   54  A    between atoms: _125  and  _128
REMARK   55  A    between atoms: _128  and  _129
REMARK   56  A    between atoms: _129  and  _130
REMARK   57  A    between atoms: _130  and  _131
REMARK   58  A    between atoms: _140  and  _142
REMARK   59  A    between atoms: _142  and  _143
REMARK   60  A    between atoms: _142  and  _145
REMARK   61  A    between atoms: _145  and  _146
REMARK   62  A    between atoms: _148  and  _150
REMARK   63  A    between atoms: _150  and  _151
REMARK   64  A    between atoms: _150  and  _153
REMARK   65  A    between atoms: _153  and  _154
REMARK   66  A    between atoms: _156  and  _158
REMARK   67  A    between atoms: _158  and  _159
REMARK   68  A    between atoms: _158  and  _161
REMARK   69  A    between atoms: _161  and  _162
REMARK   70  A    between atoms: _162  and  _163
REMARK   71  A    between atoms: _166  and  _168
REMARK   72  A    between atoms: _168  and  _169
REMARK   73  A    between atoms: _168  and  _171
REMARK   74  A    between atoms: _171  and  _172
REMARK   75  A    between atoms: _175  and  _177
REMARK   76  A    between atoms: _177  and  _178
REMARK   77  A    between atoms: _180  and  _182
REMARK   78  A    between atoms: _182  and  _183
REMARK   79  A    between atoms: _182  and  _185
REMARK   80  A    between atoms: _185  and  _186
REMARK   81  A    between atoms: _189  and  _191
REMARK   82  A    between atoms: _200  and  _203
REMARK   83  A    between atoms: _203  and  _204
REMARK   84  A    between atoms: _211  and  _212
REMARK   85  A    between atoms: _218  and  _220
REMARK   86  A    between atoms: _220  and  _221
REMARK   87  A    between atoms: _220  and  _223
REMARK   88  A    between atoms: _223  and  _224
REMARK   89  A    between atoms: _229  and  _230
REMARK   90  A    between atoms: _232  and  _234
REMARK   91  A    between atoms: _238  and  _240
REMARK   92  A    between atoms: _245  and  _246
REMARK   93  A    between atoms: _252  and  _254
REMARK   94  A    between atoms: _254  and  _255
REMARK                            x       y       z     vdW  Elec       q    Type
REMARK                         _______ _______ _______ _____ _____    ______ ____
ROOT
ATOM      1  O   HOH     1      38.773  11.923   2.266  0.00  0.00    +0.000 OA
ENDROOT
TORSDOF 0
REMARK  Name = ../refined-set-2016/2jdk/2jdk_pocket.pdb
REMARK  94 active torsions:
REMARK  status: ('A' for Active; 'I' for Inactive)
REMARK    1  A    between atoms: _1  and  _3
REMARK    2  A    between atoms: _3  and  _4
REMARK    3  A    between atoms: _3  and  _6
REMARK    4  A    between atoms: _6  and  _7
REMARK    5  A    between atoms: _10  and  _12
REMARK    6  A    between atoms: _12  and  _13
REMARK    7  A    between atoms: _16  and  _18
REMARK    8  A    between atoms: _18  and  _19
REMARK    9  A    between atoms: _22  and  _24
REMARK   10  A    between atoms: _24  and  _25
REMARK   11  A    between atoms: _24  and  _27
REMARK   12  A    between atoms: _27  and  _28
REMARK   13  A    between atoms: _33  and  _35
REMARK   14  A    between atoms: _35  and  _36
REMARK   15  A    between atoms: _35  and  _38
REMARK   16  A    between atoms: _38  and  _39
REMARK   17  A    between atoms: _41  and  _43
REMARK   18  A    between atoms: _43  and  _44
REMARK   19  A    between atoms: _43  and  _46
REMARK   20  A    between atoms: _46  and  _47
REMARK   21  A    between atoms: _49  and  _51
REMARK   22  A    between atoms: _51  and  _52
REMARK   23  A    between atoms: _54  and  _56
REMARK   24  A    between atoms: _56  and  _57
REMARK   25  A    between atoms: _56  and  _59
REMARK   26  A    between atoms: _59  and  _60
REMARK   27  A    between atoms: _63  and  _65
REMARK   28  A    between atoms: _65  and  _66
REMARK   29  A    between atoms: _65  and  _68
REMARK   30  A    between atoms: _68  and  _69
REMARK   31  A    between atoms: _69  and  _70
REMARK   32  A    between atoms: _75  and  _77
REMARK   33  A    between atoms: _77  and  _78
REMARK   34  A    between atoms: _77  and  _80
REMARK   35  A    between atoms: _80  and  _81
REMARK   36  A    between atoms: _81  and  _82
REMARK   37  A    between atoms: _87  and  _89
REMARK   38  A    between atoms: _89  and  _90
REMARK   39  A    between atoms: _89  and  _92
REMARK   40  A    between atoms: _92  and  _93
REMARK   41  A    between atoms: _95  and  _97
REMARK   42  A    between atoms: _97  and  _98
REMARK   43  A    between atoms: _97  and  _100
REMARK   44  A    between atoms: _100  and  _101
REMARK   45  A    between atoms: _104  and  _106
REMARK   46  A    between atoms: _106  and  _107
REMARK   47  A    between atoms: _106  and  _109
REMARK   48  A    between atoms: _112  and  _114
REMARK   49  A    between atoms: _114  and  _115
REMARK   50  A    between atoms: _114  and  _117
REMARK   51  A    between atoms: _117  and  _118
REMARK   52  A    between atoms: _123  and  _125
REMARK   53  A    between atoms: _125  and  _126
REMARK   54  A    between atoms: _125  and  _128
REMARK   55  A    between atoms: _128  and  _129
REMARK   56  A    between atoms: _129  and  _130
REMARK   57  A    between atoms: _130  and  _131
REMARK   58  A    between atoms: _140  and  _142
REMARK   59  A    between atoms: _142  and  _143
REMARK   60  A    between atoms: _142  and  _145
REMARK   61  A    between atoms: _145  and  _146
REMARK   62  A    between atoms: _148  and  _150
REMARK   63  A    between atoms: _150  and  _151
REMARK   64  A    between atoms: _150  and  _153
REMARK   65  A    between atoms: _153  and  _154
REMARK   66  A    between atoms: _156  and  _158
REMARK   67  A    between atoms: _158  and  _159
REMARK   68  A    between atoms: _158  and  _161
REMARK   69  A    between atoms: _161  and  _162
REMARK   70  A    between atoms: _162  and  _163
REMARK   71  A    between atoms: _166  and  _168
REMARK   72  A    between atoms: _168  and  _169
REMARK   73  A    between atoms: _168  and  _171
REMARK   74  A    between atoms: _171  and  _172
REMARK   75  A    between atoms: _175  and  _177
REMARK   76  A    between atoms: _177  and  _178
REMARK   77  A    between atoms: _180  and  _182
REMARK   78  A    between atoms: _182  and  _183
REMARK   79  A    between atoms: _182  and  _185
REMARK   80  A    between atoms: _185  and  _186
REMARK   81  A    between atoms: _189  and  _191
REMARK   82  A    between atoms: _200  and  _203
REMARK   83  A    between atoms: _203  and  _204
REMARK   84  A    between atoms: _211  and  _212
REMARK   85  A    between atoms: _218  and  _220
REMARK   86  A    between atoms: _220  and  _221
REMARK   87  A    between atoms: _220  and  _223
REMARK   88  A    between atoms: _223  and  _224
REMARK   89  A    between atoms: _229  and  _230
REMARK   90  A    between atoms: _232  and  _234
REMARK   91  A    between atoms: _238  and  _240
REMARK   92  A    between atoms: _245  and  _246
REMARK   93  A    between atoms: _252  and  _254
REMARK   94  A    between atoms: _254  and  _255
REMARK                            x       y       z     vdW  Elec       q    Type
REMARK                         _______ _______ _______ _____ _____    ______ ____
ROOT
ATOM      1  O   HOH     1      37.173   7.597   4.012  0.00  0.00    +0.000 OA
ENDROOT
TORSDOF 0
REMARK  Name = ../refined-set-2016/2jdk/2jdk_pocket.pdb
REMARK  94 active torsions:
REMARK  status: ('A' for Active; 'I' for Inactive)
REMARK    1  A    between atoms: _1  and  _3
REMARK    2  A    between atoms: _3  and  _4
REMARK    3  A    between atoms: _3  and  _6
REMARK    4  A    between atoms: _6  and  _7
REMARK    5  A    between atoms: _10  and  _12
REMARK    6  A    between atoms: _12  and  _13
REMARK    7  A    between atoms: _16  and  _18
REMARK    8  A    between atoms: _18  and  _19
REMARK    9  A    between atoms: _22  and  _24
REMARK   10  A    between atoms: _24  and  _25
REMARK   11  A    between atoms: _24  and  _27
REMARK   12  A    between atoms: _27  and  _28
REMARK   13  A    between atoms: _33  and  _35
REMARK   14  A    between atoms: _35  and  _36
REMARK   15  A    between atoms: _35  and  _38
REMARK   16  A    between atoms: _38  and  _39
REMARK   17  A    between atoms: _41  and  _43
REMARK   18  A    between atoms: _43  and  _44
REMARK   19  A    between atoms: _43  and  _46
REMARK   20  A    between atoms: _46  and  _47
REMARK   21  A    between atoms: _49  and  _51
REMARK   22  A    between atoms: _51  and  _52
REMARK   23  A    between atoms: _54  and  _56
REMARK   24  A    between atoms: _56  and  _57
REMARK   25  A    between atoms: _56  and  _59
REMARK   26  A    between atoms: _59  and  _60
REMARK   27  A    between atoms: _63  and  _65
REMARK   28  A    between atoms: _65  and  _66
REMARK   29  A    between atoms: _65  and  _68
REMARK   30  A    between atoms: _68  and  _69
REMARK   31  A    between atoms: _69  and  _70
REMARK   32  A    between atoms: _75  and  _77
REMARK   33  A    between atoms: _77  and  _78
REMARK   34  A    between atoms: _77  and  _80
REMARK   35  A    between atoms: _80  and  _81
REMARK   36  A    between atoms: _81  and  _82
REMARK   37  A    between atoms: _87  and  _89
REMARK   38  A    between atoms: _89  and  _90
REMARK   39  A    between atoms: _89  and  _92
REMARK   40  A    between atoms: _92  and  _93
REMARK   41  A    between atoms: _95  and  _97
REMARK   42  A    between atoms: _97  and  _98
REMARK   43  A    between atoms: _97  and  _100
REMARK   44  A    between atoms: _100  and  _101
REMARK   45  A    between atoms: _104  and  _106
REMARK   46  A    between atoms: _106  and  _107
REMARK   47  A    between atoms: _106  and  _109
REMARK   48  A    between atoms: _112  and  _114
REMARK   49  A    between atoms: _114  and  _115
REMARK   50  A    between atoms: _114  and  _117
REMARK   51  A    between atoms: _117  and  _118
REMARK   52  A    between atoms: _123  and  _125
REMARK   53  A    between atoms: _125  and  _126
REMARK   54  A    between atoms: _125  and  _128
REMARK   55  A    between atoms: _128  and  _129
REMARK   56  A    between atoms: _129  and  _130
REMARK   57  A    between atoms: _130  and  _131
REMARK   58  A    between atoms: _140  and  _142
REMARK   59  A    between atoms: _142  and  _143
REMARK   60  A    between atoms: _142  and  _145
REMARK   61  A    between atoms: _145  and  _146
REMARK   62  A    between atoms: _148  and  _150
REMARK   63  A    between atoms: _150  and  _151
REMARK   64  A    between atoms: _150  and  _153
REMARK   65  A    between atoms: _153  and  _154
REMARK   66  A    between atoms: _156  and  _158
REMARK   67  A    between atoms: _158  and  _159
REMARK   68  A    between atoms: _158  and  _161
REMARK   69  A    between atoms: _161  and  _162
REMARK   70  A    between atoms: _162  and  _163
REMARK   71  A    between atoms: _166  and  _168
REMARK   72  A    between atoms: _168  and  _169
REMARK   73  A    between atoms: _168  and  _171
REMARK   74  A    between atoms: _171  and  _172
REMARK   75  A    between atoms: _175  and  _177
REMARK   76  A    between atoms: _177  and  _178
REMARK   77  A    between atoms: _180  and  _182
REMARK   78  A    between atoms: _182  and  _183
REMARK   79  A    between atoms: _182  and  _185
REMARK   80  A    between atoms: _185  and  _186
REMARK   81  A    between atoms: _189  and  _191
REMARK   82  A    between atoms: _200  and  _203
REMARK   83  A    between atoms: _203  and  _204
REMARK   84  A    between atoms: _211  and  _212
REMARK   85  A    between atoms: _218  and  _220
REMARK   86  A    between atoms: _220  and  _221
REMARK   87  A    between atoms: _220  and  _223
REMARK   88  A    between atoms: _223  and  _224
REMARK   89  A    between atoms: _229  and  _230
REMARK   90  A    between atoms: _232  and  _234
REMARK   91  A    between atoms: _238  and  _240
REMARK   92  A    between atoms: _245  and  _246
REMARK   93  A    between atoms: _252  and  _254
REMARK   94  A    between atoms: _254  and  _255
REMARK                            x       y       z     vdW  Elec       q    Type
REMARK                         _______ _______ _______ _____ _____    ______ ____
ROOT
ATOM      1  O   HOH     1      38.967  11.698  -3.788  0.00  0.00    +0.000 OA
ENDROOT
TORSDOF 0
REMARK  Name = ../refined-set-2016/2jdk/2jdk_pocket.pdb
REMARK  94 active torsions:
REMARK  status: ('A' for Active; 'I' for Inactive)
REMARK    1  A    between atoms: _1  and  _3
REMARK    2  A    between atoms: _3  and  _4
REMARK    3  A    between atoms: _3  and  _6
REMARK    4  A    between atoms: _6  and  _7
REMARK    5  A    between atoms: _10  and  _12
REMARK    6  A    between atoms: _12  and  _13
REMARK    7  A    between atoms: _16  and  _18
REMARK    8  A    between atoms: _18  and  _19
REMARK    9  A    between atoms: _22  and  _24
REMARK   10  A    between atoms: _24  and  _25
REMARK   11  A    between atoms: _24  and  _27
REMARK   12  A    between atoms: _27  and  _28
REMARK   13  A    between atoms: _33  and  _35
REMARK   14  A    between atoms: _35  and  _36
REMARK   15  A    between atoms: _35  and  _38
REMARK   16  A    between atoms: _38  and  _39
REMARK   17  A    between atoms: _41  and  _43
REMARK   18  A    between atoms: _43  and  _44
REMARK   19  A    between atoms: _43  and  _46
REMARK   20  A    between atoms: _46  and  _47
REMARK   21  A    between atoms: _49  and  _51
REMARK   22  A    between atoms: _51  and  _52
REMARK   23  A    between atoms: _54  and  _56
REMARK   24  A    between atoms: _56  and  _57
REMARK   25  A    between atoms: _56  and  _59
REMARK   26  A    between atoms: _59  and  _60
REMARK   27  A    between atoms: _63  and  _65
REMARK   28  A    between atoms: _65  and  _66
REMARK   29  A    between atoms: _65  and  _68
REMARK   30  A    between atoms: _68  and  _69
REMARK   31  A    between atoms: _69  and  _70
REMARK   32  A    between atoms: _75  and  _77
REMARK   33  A    between atoms: _77  and  _78
REMARK   34  A    between atoms: _77  and  _80
REMARK   35  A    between atoms: _80  and  _81
REMARK   36  A    between atoms: _81  and  _82
REMARK   37  A    between atoms: _87  and  _89
REMARK   38  A    between atoms: _89  and  _90
REMARK   39  A    between atoms: _89  and  _92
REMARK   40  A    between atoms: _92  and  _93
REMARK   41  A    between atoms: _95  and  _97
REMARK   42  A    between atoms: _97  and  _98
REMARK   43  A    between atoms: _97  and  _100
REMARK   44  A    between atoms: _100  and  _101
REMARK   45  A    between atoms: _104  and  _106
REMARK   46  A    between atoms: _106  and  _107
REMARK   47  A    between atoms: _106  and  _109
REMARK   48  A    between atoms: _112  and  _114
REMARK   49  A    between atoms: _114  and  _115
REMARK   50  A    between atoms: _114  and  _117
REMARK   51  A    between atoms: _117  and  _118
REMARK   52  A    between atoms: _123  and  _125
REMARK   53  A    between atoms: _125  and  _126
REMARK   54  A    between atoms: _125  and  _128
REMARK   55  A    between atoms: _128  and  _129
REMARK   56  A    between atoms: _129  and  _130
REMARK   57  A    between atoms: _130  and  _131
REMARK   58  A    between atoms: _140  and  _142
REMARK   59  A    between atoms: _142  and  _143
REMARK   60  A    between atoms: _142  and  _145
REMARK   61  A    between atoms: _145  and  _146
REMARK   62  A    between atoms: _148  and  _150
REMARK   63  A    between atoms: _150  and  _151
REMARK   64  A    between atoms: _150  and  _153
REMARK   65  A    between atoms: _153  and  _154
REMARK   66  A    between atoms: _156  and  _158
REMARK   67  A    between atoms: _158  and  _159
REMARK   68  A    between atoms: _158  and  _161
REMARK   69  A    between atoms: _161  and  _162
REMARK   70  A    between atoms: _162  and  _163
REMARK   71  A    between atoms: _166  and  _168
REMARK   72  A    between atoms: _168  and  _169
REMARK   73  A    between atoms: _168  and  _171
REMARK   74  A    between atoms: _171  and  _172
REMARK   75  A    between atoms: _175  and  _177
REMARK   76  A    between atoms: _177  and  _178
REMARK   77  A    between atoms: _180  and  _182
REMARK   78  A    between atoms: _182  and  _183
REMARK   79  A    between atoms: _182  and  _185
REMARK   80  A    between atoms: _185  and  _186
REMARK   81  A    between atoms: _189  and  _191
REMARK   82  A    between atoms: _200  and  _203
REMARK   83  A    between atoms: _203  and  _204
REMARK   84  A    between atoms: _211  and  _212
REMARK   85  A    between atoms: _218  and  _220
REMARK   86  A    between atoms: _220  and  _221
REMARK   87  A    between atoms: _220  and  _223
REMARK   88  A    between atoms: _223  and  _224
REMARK   89  A    between atoms: _229  and  _230
REMARK   90  A    between atoms: _232  and  _234
REMARK   91  A    between atoms: _238  and  _240
REMARK   92  A    between atoms: _245  and  _246
REMARK   93  A    between atoms: _252  and  _254
REMARK   94  A    between atoms: _254  and  _255
REMARK                            x       y       z     vdW  Elec       q    Type
REMARK                         _______ _______ _______ _____ _____    ______ ____
ROOT
ATOM      1  O   HOH     1      35.521   6.662  -5.312  0.00  0.00    +0.000 OA
ENDROOT
TORSDOF 0
REMARK  Name = ../refined-set-2016/2jdk/2jdk_pocket.pdb
REMARK  94 active torsions:
REMARK  status: ('A' for Active; 'I' for Inactive)
REMARK    1  A    between atoms: _1  and  _3
REMARK    2  A    between atoms: _3  and  _4
REMARK    3  A    between atoms: _3  and  _6
REMARK    4  A    between atoms: _6  and  _7
REMARK    5  A    between atoms: _10  and  _12
REMARK    6  A    between atoms: _12  and  _13
REMARK    7  A    between atoms: _16  and  _18
REMARK    8  A    between atoms: _18  and  _19
REMARK    9  A    between atoms: _22  and  _24
REMARK   10  A    between atoms: _24  and  _25
REMARK   11  A    between atoms: _24  and  _27
REMARK   12  A    between atoms: _27  and  _28
REMARK   13  A    between atoms: _33  and  _35
REMARK   14  A    between atoms: _35  and  _36
REMARK   15  A    between atoms: _35  and  _38
REMARK   16  A    between atoms: _38  and  _39
REMARK   17  A    between atoms: _41  and  _43
REMARK   18  A    between atoms: _43  and  _44
REMARK   19  A    between atoms: _43  and  _46
REMARK   20  A    between atoms: _46  and  _47
REMARK   21  A    between atoms: _49  and  _51
REMARK   22  A    between atoms: _51  and  _52
REMARK   23  A    between atoms: _54  and  _56
REMARK   24  A    between atoms: _56  and  _57
REMARK   25  A    between atoms: _56  and  _59
REMARK   26  A    between atoms: _59  and  _60
REMARK   27  A    between atoms: _63  and  _65
REMARK   28  A    between atoms: _65  and  _66
REMARK   29  A    between atoms: _65  and  _68
REMARK   30  A    between atoms: _68  and  _69
REMARK   31  A    between atoms: _69  and  _70
REMARK   32  A    between atoms: _75  and  _77
REMARK   33  A    between atoms: _77  and  _78
REMARK   34  A    between atoms: _77  and  _80
REMARK   35  A    between atoms: _80  and  _81
REMARK   36  A    between atoms: _81  and  _82
REMARK   37  A    between atoms: _87  and  _89
REMARK   38  A    between atoms: _89  and  _90
REMARK   39  A    between atoms: _89  and  _92
REMARK   40  A    between atoms: _92  and  _93
REMARK   41  A    between atoms: _95  and  _97
REMARK   42  A    between atoms: _97  and  _98
REMARK   43  A    between atoms: _97  and  _100
REMARK   44  A    between atoms: _100  and  _101
REMARK   45  A    between atoms: _104  and  _106
REMARK   46  A    between atoms: _106  and  _107
REMARK   47  A    between atoms: _106  and  _109
REMARK   48  A    between atoms: _112  and  _114
REMARK   49  A    between atoms: _114  and  _115
REMARK   50  A    between atoms: _114  and  _117
REMARK   51  A    between atoms: _117  and  _118
REMARK   52  A    between atoms: _123  and  _125
REMARK   53  A    between atoms: _125  and  _126
REMARK   54  A    between atoms: _125  and  _128
REMARK   55  A    between atoms: _128  and  _129
REMARK   56  A    between atoms: _129  and  _130
REMARK   57  A    between atoms: _130  and  _131
REMARK   58  A    between atoms: _140  and  _142
REMARK   59  A    between atoms: _142  and  _143
REMARK   60  A    between atoms: _142  and  _145
REMARK   61  A    between atoms: _145  and  _146
REMARK   62  A    between atoms: _148  and  _150
REMARK   63  A    between atoms: _150  and  _151
REMARK   64  A    between atoms: _150  and  _153
REMARK   65  A    between atoms: _153  and  _154
REMARK   66  A    between atoms: _156  and  _158
REMARK   67  A    between atoms: _158  and  _159
REMARK   68  A    between atoms: _158  and  _161
REMARK   69  A    between atoms: _161  and  _162
REMARK   70  A    between atoms: _162  and  _163
REMARK   71  A    between atoms: _166  and  _168
REMARK   72  A    between atoms: _168  and  _169
REMARK   73  A    between atoms: _168  and  _171
REMARK   74  A    between atoms: _171  and  _172
REMARK   75  A    between atoms: _175  and  _177
REMARK   76  A    between atoms: _177  and  _178
REMARK   77  A    between atoms: _180  and  _182
REMARK   78  A    between atoms: _182  and  _183
REMARK   79  A    between atoms: _182  and  _185
REMARK   80  A    between atoms: _185  and  _186
REMARK   81  A    between atoms: _189  and  _191
REMARK   82  A    between atoms: _200  and  _203
REMARK   83  A    between atoms: _203  and  _204
REMARK   84  A    between atoms: _211  and  _212
REMARK   85  A    between atoms: _218  and  _220
REMARK   86  A    between atoms: _220  and  _221
REMARK   87  A    between atoms: _220  and  _223
REMARK   88  A    between atoms: _223  and  _224
REMARK   89  A    between atoms: _229  and  _230
REMARK   90  A    between atoms: _232  and  _234
REMARK   91  A    between atoms: _238  and  _240
REMARK   92  A    between atoms: _245  and  _246
REMARK   93  A    between atoms: _252  and  _254
REMARK   94  A    between atoms: _254  and  _255
REMARK                            x       y       z     vdW  Elec       q    Type
REMARK                         _______ _______ _______ _____ _____    ______ ____
ROOT
ATOM      1  O   HOH     1      32.863   6.796  -9.038  0.00  0.00    +0.000 OA
ENDROOT
TORSDOF 0
REMARK  Name = ../refined-set-2016/2jdk/2jdk_pocket.pdb
REMARK  94 active torsions:
REMARK  status: ('A' for Active; 'I' for Inactive)
REMARK    1  A    between atoms: _1  and  _3
REMARK    2  A    between atoms: _3  and  _4
REMARK    3  A    between atoms: _3  and  _6
REMARK    4  A    between atoms: _6  and  _7
REMARK    5  A    between atoms: _10  and  _12
REMARK    6  A    between atoms: _12  and  _13
REMARK    7  A    between atoms: _16  and  _18
REMARK    8  A    between atoms: _18  and  _19
REMARK    9  A    between atoms: _22  and  _24
REMARK   10  A    between atoms: _24  and  _25
REMARK   11  A    between atoms: _24  and  _27
REMARK   12  A    between atoms: _27  and  _28
REMARK   13  A    between atoms: _33  and  _35
REMARK   14  A    between atoms: _35  and  _36
REMARK   15  A    between atoms: _35  and  _38
REMARK   16  A    between atoms: _38  and  _39
REMARK   17  A    between atoms: _41  and  _43
REMARK   18  A    between atoms: _43  and  _44
REMARK   19  A    between atoms: _43  and  _46
REMARK   20  A    between atoms: _46  and  _47
REMARK   21  A    between atoms: _49  and  _51
REMARK   22  A    between atoms: _51  and  _52
REMARK   23  A    between atoms: _54  and  _56
REMARK   24  A    between atoms: _56  and  _57
REMARK   25  A    between atoms: _56  and  _59
REMARK   26  A    between atoms: _59  and  _60
REMARK   27  A    between atoms: _63  and  _65
REMARK   28  A    between atoms: _65  and  _66
REMARK   29  A    between atoms: _65  and  _68
REMARK   30  A    between atoms: _68  and  _69
REMARK   31  A    between atoms: _69  and  _70
REMARK   32  A    between atoms: _75  and  _77
REMARK   33  A    between atoms: _77  and  _78
REMARK   34  A    between atoms: _77  and  _80
REMARK   35  A    between atoms: _80  and  _81
REMARK   36  A    between atoms: _81  and  _82
REMARK   37  A    between atoms: _87  and  _89
REMARK   38  A    between atoms: _89  and  _90
REMARK   39  A    between atoms: _89  and  _92
REMARK   40  A    between atoms: _92  and  _93
REMARK   41  A    between atoms: _95  and  _97
REMARK   42  A    between atoms: _97  and  _98
REMARK   43  A    between atoms: _97  and  _100
REMARK   44  A    between atoms: _100  and  _101
REMARK   45  A    between atoms: _104  and  _106
REMARK   46  A    between atoms: _106  and  _107
REMARK   47  A    between atoms: _106  and  _109
REMARK   48  A    between atoms: _112  and  _114
REMARK   49  A    between atoms: _114  and  _115
REMARK   50  A    between atoms: _114  and  _117
REMARK   51  A    between atoms: _117  and  _118
REMARK   52  A    between atoms: _123  and  _125
REMARK   53  A    between atoms: _125  and  _126
REMARK   54  A    between atoms: _125  and  _128
REMARK   55  A    between atoms: _128  and  _129
REMARK   56  A    between atoms: _129  and  _130
REMARK   57  A    between atoms: _130  and  _131
REMARK   58  A    between atoms: _140  and  _142
REMARK   59  A    between atoms: _142  and  _143
REMARK   60  A    between atoms: _142  and  _145
REMARK   61  A    between atoms: _145  and  _146
REMARK   62  A    between atoms: _148  and  _150
REMARK   63  A    between atoms: _150  and  _151
REMARK   64  A    between atoms: _150  and  _153
REMARK   65  A    between atoms: _153  and  _154
REMARK   66  A    between atoms: _156  and  _158
REMARK   67  A    between atoms: _158  and  _159
REMARK   68  A    between atoms: _158  and  _161
REMARK   69  A    between atoms: _161  and  _162
REMARK   70  A    between atoms: _162  and  _163
REMARK   71  A    between atoms: _166  and  _168
REMARK   72  A    between atoms: _168  and  _169
REMARK   73  A    between atoms: _168  and  _171
REMARK   74  A    between atoms: _171  and  _172
REMARK   75  A    between atoms: _175  and  _177
REMARK   76  A    between atoms: _177  and  _178
REMARK   77  A    between atoms: _180  and  _182
REMARK   78  A    between atoms: _182  and  _183
REMARK   79  A    between atoms: _182  and  _185
REMARK   80  A    between atoms: _185  and  _186
REMARK   81  A    between atoms: _189  and  _191
REMARK   82  A    between atoms: _200  and  _203
REMARK   83  A    between atoms: _203  and  _204
REMARK   84  A    between atoms: _211  and  _212
REMARK   85  A    between atoms: _218  and  _220
REMARK   86  A    between atoms: _220  and  _221
REMARK   87  A    between atoms: _220  and  _223
REMARK   88  A    between atoms: _223  and  _224
REMARK   89  A    between atoms: _229  and  _230
REMARK   90  A    between atoms: _232  and  _234
REMARK   91  A    between atoms: _238  and  _240
REMARK   92  A    between atoms: _245  and  _246
REMARK   93  A    between atoms: _252  and  _254
REMARK   94  A    between atoms: _254  and  _255
REMARK                            x       y       z     vdW  Elec       q    Type
REMARK                         _______ _______ _______ _____ _____    ______ ____
ROOT
ATOM      1  O   HOH     1      36.817   9.138  -7.542  0.00  0.00    +0.000 OA
ENDROOT
TORSDOF 0
REMARK  Name = ../refined-set-2016/2jdk/2jdk_pocket.pdb
REMARK  94 active torsions:
REMARK  status: ('A' for Active; 'I' for Inactive)
REMARK    1  A    between atoms: _1  and  _3
REMARK    2  A    between atoms: _3  and  _4
REMARK    3  A    between atoms: _3  and  _6
REMARK    4  A    between atoms: _6  and  _7
REMARK    5  A    between atoms: _10  and  _12
REMARK    6  A    between atoms: _12  and  _13
REMARK    7  A    between atoms: _16  and  _18
REMARK    8  A    between atoms: _18  and  _19
REMARK    9  A    between atoms: _22  and  _24
REMARK   10  A    between atoms: _24  and  _25
REMARK   11  A    between atoms: _24  and  _27
REMARK   12  A    between atoms: _27  and  _28
REMARK   13  A    between atoms: _33  and  _35
REMARK   14  A    between atoms: _35  and  _36
REMARK   15  A    between atoms: _35  and  _38
REMARK   16  A    between atoms: _38  and  _39
REMARK   17  A    between atoms: _41  and  _43
REMARK   18  A    between atoms: _43  and  _44
REMARK   19  A    between atoms: _43  and  _46
REMARK   20  A    between atoms: _46  and  _47
REMARK   21  A    between atoms: _49  and  _51
REMARK   22  A    between atoms: _51  and  _52
REMARK   23  A    between atoms: _54  and  _56
REMARK   24  A    between atoms: _56  and  _57
REMARK   25  A    between atoms: _56  and  _59
REMARK   26  A    between atoms: _59  and  _60
REMARK   27  A    between atoms: _63  and  _65
REMARK   28  A    between atoms: _65  and  _66
REMARK   29  A    between atoms: _65  and  _68
REMARK   30  A    between atoms: _68  and  _69
REMARK   31  A    between atoms: _69  and  _70
REMARK   32  A    between atoms: _75  and  _77
REMARK   33  A    between atoms: _77  and  _78
REMARK   34  A    between atoms: _77  and  _80
REMARK   35  A    between atoms: _80  and  _81
REMARK   36  A    between atoms: _81  and  _82
REMARK   37  A    between atoms: _87  and  _89
REMARK   38  A    between atoms: _89  and  _90
REMARK   39  A    between atoms: _89  and  _92
REMARK   40  A    between atoms: _92  and  _93
REMARK   41  A    between atoms: _95  and  _97
REMARK   42  A    between atoms: _97  and  _98
REMARK   43  A    between atoms: _97  and  _100
REMARK   44  A    between atoms: _100  and  _101
REMARK   45  A    between atoms: _104  and  _106
REMARK   46  A    between atoms: _106  and  _107
REMARK   47  A    between atoms: _106  and  _109
REMARK   48  A    between atoms: _112  and  _114
REMARK   49  A    between atoms: _114  and  _115
REMARK   50  A    between atoms: _114  and  _117
REMARK   51  A    between atoms: _117  and  _118
REMARK   52  A    between atoms: _123  and  _125
REMARK   53  A    between atoms: _125  and  _126
REMARK   54  A    between atoms: _125  and  _128
REMARK   55  A    between atoms: _128  and  _129
REMARK   56  A    between atoms: _129  and  _130
REMARK   57  A    between atoms: _130  and  _131
REMARK   58  A    between atoms: _140  and  _142
REMARK   59  A    between atoms: _142  and  _143
REMARK   60  A    between atoms: _142  and  _145
REMARK   61  A    between atoms: _145  and  _146
REMARK   62  A    between atoms: _148  and  _150
REMARK   63  A    between atoms: _150  and  _151
REMARK   64  A    between atoms: _150  and  _153
REMARK   65  A    between atoms: _153  and  _154
REMARK   66  A    between atoms: _156  and  _158
REMARK   67  A    between atoms: _158  and  _159
REMARK   68  A    between atoms: _158  and  _161
REMARK   69  A    between atoms: _161  and  _162
REMARK   70  A    between atoms: _162  and  _163
REMARK   71  A    between atoms: _166  and  _168
REMARK   72  A    between atoms: _168  and  _169
REMARK   73  A    between atoms: _168  and  _171
REMARK   74  A    between atoms: _171  and  _172
REMARK   75  A    between atoms: _175  and  _177
REMARK   76  A    between atoms: _177  and  _178
REMARK   77  A    between atoms: _180  and  _182
REMARK   78  A    between atoms: _182  and  _183
REMARK   79  A    between atoms: _182  and  _185
REMARK   80  A    between atoms: _185  and  _186
REMARK   81  A    between atoms: _189  and  _191
REMARK   82  A    between atoms: _200  and  _203
REMARK   83  A    between atoms: _203  and  _204
REMARK   84  A    between atoms: _211  and  _212
REMARK   85  A    between atoms: _218  and  _220
REMARK   86  A    between atoms: _220  and  _221
REMARK   87  A    between atoms: _220  and  _223
REMARK   88  A    between atoms: _223  and  _224
REMARK   89  A    between atoms: _229  and  _230
REMARK   90  A    between atoms: _232  and  _234
REMARK   91  A    between atoms: _238  and  _240
REMARK   92  A    between atoms: _245  and  _246
REMARK   93  A    between atoms: _252  and  _254
REMARK   94  A    between atoms: _254  and  _255
REMARK                            x       y       z     vdW  Elec       q    Type
REMARK                         _______ _______ _______ _____ _____    ______ ____
ROOT
ATOM      1  O   HOH     1      29.241   3.903  -7.683  0.00  0.00    +0.000 OA
ENDROOT
TORSDOF 0
REMARK  Name = ../refined-set-2016/2jdk/2jdk_pocket.pdb
REMARK  94 active torsions:
REMARK  status: ('A' for Active; 'I' for Inactive)
REMARK    1  A    between atoms: _1  and  _3
REMARK    2  A    between atoms: _3  and  _4
REMARK    3  A    between atoms: _3  and  _6
REMARK    4  A    between atoms: _6  and  _7
REMARK    5  A    between atoms: _10  and  _12
REMARK    6  A    between atoms: _12  and  _13
REMARK    7  A    between atoms: _16  and  _18
REMARK    8  A    between atoms: _18  and  _19
REMARK    9  A    between atoms: _22  and  _24
REMARK   10  A    between atoms: _24  and  _25
REMARK   11  A    between atoms: _24  and  _27
REMARK   12  A    between atoms: _27  and  _28
REMARK   13  A    between atoms: _33  and  _35
REMARK   14  A    between atoms: _35  and  _36
REMARK   15  A    between atoms: _35  and  _38
REMARK   16  A    between atoms: _38  and  _39
REMARK   17  A    between atoms: _41  and  _43
REMARK   18  A    between atoms: _43  and  _44
REMARK   19  A    between atoms: _43  and  _46
REMARK   20  A    between atoms: _46  and  _47
REMARK   21  A    between atoms: _49  and  _51
REMARK   22  A    between atoms: _51  and  _52
REMARK   23  A    between atoms: _54  and  _56
REMARK   24  A    between atoms: _56  and  _57
REMARK   25  A    between atoms: _56  and  _59
REMARK   26  A    between atoms: _59  and  _60
REMARK   27  A    between atoms: _63  and  _65
REMARK   28  A    between atoms: _65  and  _66
REMARK   29  A    between atoms: _65  and  _68
REMARK   30  A    between atoms: _68  and  _69
REMARK   31  A    between atoms: _69  and  _70
REMARK   32  A    between atoms: _75  and  _77
REMARK   33  A    between atoms: _77  and  _78
REMARK   34  A    between atoms: _77  and  _80
REMARK   35  A    between atoms: _80  and  _81
REMARK   36  A    between atoms: _81  and  _82
REMARK   37  A    between atoms: _87  and  _89
REMARK   38  A    between atoms: _89  and  _90
REMARK   39  A    between atoms: _89  and  _92
REMARK   40  A    between atoms: _92  and  _93
REMARK   41  A    between atoms: _95  and  _97
REMARK   42  A    between atoms: _97  and  _98
REMARK   43  A    between atoms: _97  and  _100
REMARK   44  A    between atoms: _100  and  _101
REMARK   45  A    between atoms: _104  and  _106
REMARK   46  A    between atoms: _106  and  _107
REMARK   47  A    between atoms: _106  and  _109
REMARK   48  A    between atoms: _112  and  _114
REMARK   49  A    between atoms: _114  and  _115
REMARK   50  A    between atoms: _114  and  _117
REMARK   51  A    between atoms: _117  and  _118
REMARK   52  A    between atoms: _123  and  _125
REMARK   53  A    between atoms: _125  and  _126
REMARK   54  A    between atoms: _125  and  _128
REMARK   55  A    between atoms: _128  and  _129
REMARK   56  A    between atoms: _129  and  _130
REMARK   57  A    between atoms: _130  and  _131
REMARK   58  A    between atoms: _140  and  _142
REMARK   59  A    between atoms: _142  and  _143
REMARK   60  A    between atoms: _142  and  _145
REMARK   61  A    between atoms: _145  and  _146
REMARK   62  A    between atoms: _148  and  _150
REMARK   63  A    between atoms: _150  and  _151
REMARK   64  A    between atoms: _150  and  _153
REMARK   65  A    between atoms: _153  and  _154
REMARK   66  A    between atoms: _156  and  _158
REMARK   67  A    between atoms: _158  and  _159
REMARK   68  A    between atoms: _158  and  _161
REMARK   69  A    between atoms: _161  and  _162
REMARK   70  A    between atoms: _162  and  _163
REMARK   71  A    between atoms: _166  and  _168
REMARK   72  A    between atoms: _168  and  _169
REMARK   73  A    between atoms: _168  and  _171
REMARK   74  A    between atoms: _171  and  _172
REMARK   75  A    between atoms: _175  and  _177
REMARK   76  A    between atoms: _177  and  _178
REMARK   77  A    between atoms: _180  and  _182
REMARK   78  A    between atoms: _182  and  _183
REMARK   79  A    between atoms: _182  and  _185
REMARK   80  A    between atoms: _185  and  _186
REMARK   81  A    between atoms: _189  and  _191
REMARK   82  A    between atoms: _200  and  _203
REMARK   83  A    between atoms: _203  and  _204
REMARK   84  A    between atoms: _211  and  _212
REMARK   85  A    between atoms: _218  and  _220
REMARK   86  A    between atoms: _220  and  _221
REMARK   87  A    between atoms: _220  and  _223
REMARK   88  A    between atoms: _223  and  _224
REMARK   89  A    between atoms: _229  and  _230
REMARK   90  A    between atoms: _232  and  _234
REMARK   91  A    between atoms: _238  and  _240
REMARK   92  A    between atoms: _245  and  _246
REMARK   93  A    between atoms: _252  and  _254
REMARK   94  A    between atoms: _254  and  _255
REMARK                            x       y       z     vdW  Elec       q    Type
REMARK                         _______ _______ _______ _____ _____    ______ ____
ROOT
ATOM      1  O   HOH     1      34.004   1.272  -6.813  0.00  0.00    +0.000 OA
ENDROOT
TORSDOF 0
REMARK  Name = ../refined-set-2016/2jdk/2jdk_pocket.pdb
REMARK  94 active torsions:
REMARK  status: ('A' for Active; 'I' for Inactive)
REMARK    1  A    between atoms: _1  and  _3
REMARK    2  A    between atoms: _3  and  _4
REMARK    3  A    between atoms: _3  and  _6
REMARK    4  A    between atoms: _6  and  _7
REMARK    5  A    between atoms: _10  and  _12
REMARK    6  A    between atoms: _12  and  _13
REMARK    7  A    between atoms: _16  and  _18
REMARK    8  A    between atoms: _18  and  _19
REMARK    9  A    between atoms: _22  and  _24
REMARK   10  A    between atoms: _24  and  _25
REMARK   11  A    between atoms: _24  and  _27
REMARK   12  A    between atoms: _27  and  _28
REMARK   13  A    between atoms: _33  and  _35
REMARK   14  A    between atoms: _35  and  _36
REMARK   15  A    between atoms: _35  and  _38
REMARK   16  A    between atoms: _38  and  _39
REMARK   17  A    between atoms: _41  and  _43
REMARK   18  A    between atoms: _43  and  _44
REMARK   19  A    between atoms: _43  and  _46
REMARK   20  A    between atoms: _46  and  _47
REMARK   21  A    between atoms: _49  and  _51
REMARK   22  A    between atoms: _51  and  _52
REMARK   23  A    between atoms: _54  and  _56
REMARK   24  A    between atoms: _56  and  _57
REMARK   25  A    between atoms: _56  and  _59
REMARK   26  A    between atoms: _59  and  _60
REMARK   27  A    between atoms: _63  and  _65
REMARK   28  A    between atoms: _65  and  _66
REMARK   29  A    between atoms: _65  and  _68
REMARK   30  A    between atoms: _68  and  _69
REMARK   31  A    between atoms: _69  and  _70
REMARK   32  A    between atoms: _75  and  _77
REMARK   33  A    between atoms: _77  and  _78
REMARK   34  A    between atoms: _77  and  _80
REMARK   35  A    between atoms: _80  and  _81
REMARK   36  A    between atoms: _81  and  _82
REMARK   37  A    between atoms: _87  and  _89
REMARK   38  A    between atoms: _89  and  _90
REMARK   39  A    between atoms: _89  and  _92
REMARK   40  A    between atoms: _92  and  _93
REMARK   41  A    between atoms: _95  and  _97
REMARK   42  A    between atoms: _97  and  _98
REMARK   43  A    between atoms: _97  and  _100
REMARK   44  A    between atoms: _100  and  _101
REMARK   45  A    between atoms: _104  and  _106
REMARK   46  A    between atoms: _106  and  _107
REMARK   47  A    between atoms: _106  and  _109
REMARK   48  A    between atoms: _112  and  _114
REMARK   49  A    between atoms: _114  and  _115
REMARK   50  A    between atoms: _114  and  _117
REMARK   51  A    between atoms: _117  and  _118
REMARK   52  A    between atoms: _123  and  _125
REMARK   53  A    between atoms: _125  and  _126
REMARK   54  A    between atoms: _125  and  _128
REMARK   55  A    between atoms: _128  and  _129
REMARK   56  A    between atoms: _129  and  _130
REMARK   57  A    between atoms: _130  and  _131
REMARK   58  A    between atoms: _140  and  _142
REMARK   59  A    between atoms: _142  and  _143
REMARK   60  A    between atoms: _142  and  _145
REMARK   61  A    between atoms: _145  and  _146
REMARK   62  A    between atoms: _148  and  _150
REMARK   63  A    between atoms: _150  and  _151
REMARK   64  A    between atoms: _150  and  _153
REMARK   65  A    between atoms: _153  and  _154
REMARK   66  A    between atoms: _156  and  _158
REMARK   67  A    between atoms: _158  and  _159
REMARK   68  A    between atoms: _158  and  _161
REMARK   69  A    between atoms: _161  and  _162
REMARK   70  A    between atoms: _162  and  _163
REMARK   71  A    between atoms: _166  and  _168
REMARK   72  A    between atoms: _168  and  _169
REMARK   73  A    between atoms: _168  and  _171
REMARK   74  A    between atoms: _171  and  _172
REMARK   75  A    between atoms: _175  and  _177
REMARK   76  A    between atoms: _177  and  _178
REMARK   77  A    between atoms: _180  and  _182
REMARK   78  A    between atoms: _182  and  _183
REMARK   79  A    between atoms: _182  and  _185
REMARK   80  A    between atoms: _185  and  _186
REMARK   81  A    between atoms: _189  and  _191
REMARK   82  A    between atoms: _200  and  _203
REMARK   83  A    between atoms: _203  and  _204
REMARK   84  A    between atoms: _211  and  _212
REMARK   85  A    between atoms: _218  and  _220
REMARK   86  A    between atoms: _220  and  _221
REMARK   87  A    between atoms: _220  and  _223
REMARK   88  A    between atoms: _223  and  _224
REMARK   89  A    between atoms: _229  and  _230
REMARK   90  A    between atoms: _232  and  _234
REMARK   91  A    between atoms: _238  and  _240
REMARK   92  A    between atoms: _245  and  _246
REMARK   93  A    between atoms: _252  and  _254
REMARK   94  A    between atoms: _254  and  _255
REMARK                            x       y       z     vdW  Elec       q    Type
REMARK                         _______ _______ _______ _____ _____    ______ ____
ROOT
ATOM      1  O   HOH     1      28.960   1.959  -4.606  0.00  0.00    +0.000 OA
ENDROOT
TORSDOF 0
REMARK  Name = ../refined-set-2016/2jdk/2jdk_pocket.pdb
REMARK  94 active torsions:
REMARK  status: ('A' for Active; 'I' for Inactive)
REMARK    1  A    between atoms: _1  and  _3
REMARK    2  A    between atoms: _3  and  _4
REMARK    3  A    between atoms: _3  and  _6
REMARK    4  A    between atoms: _6  and  _7
REMARK    5  A    between atoms: _10  and  _12
REMARK    6  A    between atoms: _12  and  _13
REMARK    7  A    between atoms: _16  and  _18
REMARK    8  A    between atoms: _18  and  _19
REMARK    9  A    between atoms: _22  and  _24
REMARK   10  A    between atoms: _24  and  _25
REMARK   11  A    between atoms: _24  and  _27
REMARK   12  A    between atoms: _27  and  _28
REMARK   13  A    between atoms: _33  and  _35
REMARK   14  A    between atoms: _35  and  _36
REMARK   15  A    between atoms: _35  and  _38
REMARK   16  A    between atoms: _38  and  _39
REMARK   17  A    between atoms: _41  and  _43
REMARK   18  A    between atoms: _43  and  _44
REMARK   19  A    between atoms: _43  and  _46
REMARK   20  A    between atoms: _46  and  _47
REMARK   21  A    between atoms: _49  and  _51
REMARK   22  A    between atoms: _51  and  _52
REMARK   23  A    between atoms: _54  and  _56
REMARK   24  A    between atoms: _56  and  _57
REMARK   25  A    between atoms: _56  and  _59
REMARK   26  A    between atoms: _59  and  _60
REMARK   27  A    between atoms: _63  and  _65
REMARK   28  A    between atoms: _65  and  _66
REMARK   29  A    between atoms: _65  and  _68
REMARK   30  A    between atoms: _68  and  _69
REMARK   31  A    between atoms: _69  and  _70
REMARK   32  A    between atoms: _75  and  _77
REMARK   33  A    between atoms: _77  and  _78
REMARK   34  A    between atoms: _77  and  _80
REMARK   35  A    between atoms: _80  and  _81
REMARK   36  A    between atoms: _81  and  _82
REMARK   37  A    between atoms: _87  and  _89
REMARK   38  A    between atoms: _89  and  _90
REMARK   39  A    between atoms: _89  and  _92
REMARK   40  A    between atoms: _92  and  _93
REMARK   41  A    between atoms: _95  and  _97
REMARK   42  A    between atoms: _97  and  _98
REMARK   43  A    between atoms: _97  and  _100
REMARK   44  A    between atoms: _100  and  _101
REMARK   45  A    between atoms: _104  and  _106
REMARK   46  A    between atoms: _106  and  _107
REMARK   47  A    between atoms: _106  and  _109
REMARK   48  A    between atoms: _112  and  _114
REMARK   49  A    between atoms: _114  and  _115
REMARK   50  A    between atoms: _114  and  _117
REMARK   51  A    between atoms: _117  and  _118
REMARK   52  A    between atoms: _123  and  _125
REMARK   53  A    between atoms: _125  and  _126
REMARK   54  A    between atoms: _125  and  _128
REMARK   55  A    between atoms: _128  and  _129
REMARK   56  A    between atoms: _129  and  _130
REMARK   57  A    between atoms: _130  and  _131
REMARK   58  A    between atoms: _140  and  _142
REMARK   59  A    between atoms: _142  and  _143
REMARK   60  A    between atoms: _142  and  _145
REMARK   61  A    between atoms: _145  and  _146
REMARK   62  A    between atoms: _148  and  _150
REMARK   63  A    between atoms: _150  and  _151
REMARK   64  A    between atoms: _150  and  _153
REMARK   65  A    between atoms: _153  and  _154
REMARK   66  A    between atoms: _156  and  _158
REMARK   67  A    between atoms: _158  and  _159
REMARK   68  A    between atoms: _158  and  _161
REMARK   69  A    between atoms: _161  and  _162
REMARK   70  A    between atoms: _162  and  _163
REMARK   71  A    between atoms: _166  and  _168
REMARK   72  A    between atoms: _168  and  _169
REMARK   73  A    between atoms: _168  and  _171
REMARK   74  A    between atoms: _171  and  _172
REMARK   75  A    between atoms: _175  and  _177
REMARK   76  A    between atoms: _177  and  _178
REMARK   77  A    between atoms: _180  and  _182
REMARK   78  A    between atoms: _182  and  _183
REMARK   79  A    between atoms: _182  and  _185
REMARK   80  A    between atoms: _185  and  _186
REMARK   81  A    between atoms: _189  and  _191
REMARK   82  A    between atoms: _200  and  _203
REMARK   83  A    between atoms: _203  and  _204
REMARK   84  A    between atoms: _211  and  _212
REMARK   85  A    between atoms: _218  and  _220
REMARK   86  A    between atoms: _220  and  _221
REMARK   87  A    between atoms: _220  and  _223
REMARK   88  A    between atoms: _223  and  _224
REMARK   89  A    between atoms: _229  and  _230
REMARK   90  A    between atoms: _232  and  _234
REMARK   91  A    between atoms: _238  and  _240
REMARK   92  A    between atoms: _245  and  _246
REMARK   93  A    between atoms: _252  and  _254
REMARK   94  A    between atoms: _254  and  _255
REMARK                            x       y       z     vdW  Elec       q    Type
REMARK                         _______ _______ _______ _____ _____    ______ ____
ROOT
ATOM      1  O   HOH     1      32.967  -1.484  -2.662  0.00  0.00    +0.000 OA
ENDROOT
TORSDOF 0
REMARK  Name = ../refined-set-2016/2jdk/2jdk_pocket.pdb
REMARK  94 active torsions:
REMARK  status: ('A' for Active; 'I' for Inactive)
REMARK    1  A    between atoms: _1  and  _3
REMARK    2  A    between atoms: _3  and  _4
REMARK    3  A    between atoms: _3  and  _6
REMARK    4  A    between atoms: _6  and  _7
REMARK    5  A    between atoms: _10  and  _12
REMARK    6  A    between atoms: _12  and  _13
REMARK    7  A    between atoms: _16  and  _18
REMARK    8  A    between atoms: _18  and  _19
REMARK    9  A    between atoms: _22  and  _24
REMARK   10  A    between atoms: _24  and  _25
REMARK   11  A    between atoms: _24  and  _27
REMARK   12  A    between atoms: _27  and  _28
REMARK   13  A    between atoms: _33  and  _35
REMARK   14  A    between atoms: _35  and  _36
REMARK   15  A    between atoms: _35  and  _38
REMARK   16  A    between atoms: _38  and  _39
REMARK   17  A    between atoms: _41  and  _43
REMARK   18  A    between atoms: _43  and  _44
REMARK   19  A    between atoms: _43  and  _46
REMARK   20  A    between atoms: _46  and  _47
REMARK   21  A    between atoms: _49  and  _51
REMARK   22  A    between atoms: _51  and  _52
REMARK   23  A    between atoms: _54  and  _56
REMARK   24  A    between atoms: _56  and  _57
REMARK   25  A    between atoms: _56  and  _59
REMARK   26  A    between atoms: _59  and  _60
REMARK   27  A    between atoms: _63  and  _65
REMARK   28  A    between atoms: _65  and  _66
REMARK   29  A    between atoms: _65  and  _68
REMARK   30  A    between atoms: _68  and  _69
REMARK   31  A    between atoms: _69  and  _70
REMARK   32  A    between atoms: _75  and  _77
REMARK   33  A    between atoms: _77  and  _78
REMARK   34  A    between atoms: _77  and  _80
REMARK   35  A    between atoms: _80  and  _81
REMARK   36  A    between atoms: _81  and  _82
REMARK   37  A    between atoms: _87  and  _89
REMARK   38  A    between atoms: _89  and  _90
REMARK   39  A    between atoms: _89  and  _92
REMARK   40  A    between atoms: _92  and  _93
REMARK   41  A    between atoms: _95  and  _97
REMARK   42  A    between atoms: _97  and  _98
REMARK   43  A    between atoms: _97  and  _100
REMARK   44  A    between atoms: _100  and  _101
REMARK   45  A    between atoms: _104  and  _106
REMARK   46  A    between atoms: _106  and  _107
REMARK   47  A    between atoms: _106  and  _109
REMARK   48  A    between atoms: _112  and  _114
REMARK   49  A    between atoms: _114  and  _115
REMARK   50  A    between atoms: _114  and  _117
REMARK   51  A    between atoms: _117  and  _118
REMARK   52  A    between atoms: _123  and  _125
REMARK   53  A    between atoms: _125  and  _126
REMARK   54  A    between atoms: _125  and  _128
REMARK   55  A    between atoms: _128  and  _129
REMARK   56  A    between atoms: _129  and  _130
REMARK   57  A    between atoms: _130  and  _131
REMARK   58  A    between atoms: _140  and  _142
REMARK   59  A    between atoms: _142  and  _143
REMARK   60  A    between atoms: _142  and  _145
REMARK   61  A    between atoms: _145  and  _146
REMARK   62  A    between atoms: _148  and  _150
REMARK   63  A    between atoms: _150  and  _151
REMARK   64  A    between atoms: _150  and  _153
REMARK   65  A    between atoms: _153  and  _154
REMARK   66  A    between atoms: _156  and  _158
REMARK   67  A    between atoms: _158  and  _159
REMARK   68  A    between atoms: _158  and  _161
REMARK   69  A    between atoms: _161  and  _162
REMARK   70  A    between atoms: _162  and  _163
REMARK   71  A    between atoms: _166  and  _168
REMARK   72  A    between atoms: _168  and  _169
REMARK   73  A    between atoms: _168  and  _171
REMARK   74  A    between atoms: _171  and  _172
REMARK   75  A    between atoms: _175  and  _177
REMARK   76  A    between atoms: _177  and  _178
REMARK   77  A    between atoms: _180  and  _182
REMARK   78  A    between atoms: _182  and  _183
REMARK   79  A    between atoms: _182  and  _185
REMARK   80  A    between atoms: _185  and  _186
REMARK   81  A    between atoms: _189  and  _191
REMARK   82  A    between atoms: _200  and  _203
REMARK   83  A    between atoms: _203  and  _204
REMARK   84  A    between atoms: _211  and  _212
REMARK   85  A    between atoms: _218  and  _220
REMARK   86  A    between atoms: _220  and  _221
REMARK   87  A    between atoms: _220  and  _223
REMARK   88  A    between atoms: _223  and  _224
REMARK   89  A    between atoms: _229  and  _230
REMARK   90  A    between atoms: _232  and  _234
REMARK   91  A    between atoms: _238  and  _240
REMARK   92  A    between atoms: _245  and  _246
REMARK   93  A    between atoms: _252  and  _254
REMARK   94  A    between atoms: _254  and  _255
REMARK                            x       y       z     vdW  Elec       q    Type
REMARK                         _______ _______ _______ _____ _____    ______ ____
ROOT
ATOM      1  O   HOH     1      28.768   0.087  -0.137  0.00  0.00    +0.000 OA
ENDROOT
TORSDOF 0
REMARK  Name = ../refined-set-2016/2jdk/2jdk_pocket.pdb
REMARK  94 active torsions:
REMARK  status: ('A' for Active; 'I' for Inactive)
REMARK    1  A    between atoms: _1  and  _3
REMARK    2  A    between atoms: _3  and  _4
REMARK    3  A    between atoms: _3  and  _6
REMARK    4  A    between atoms: _6  and  _7
REMARK    5  A    between atoms: _10  and  _12
REMARK    6  A    between atoms: _12  and  _13
REMARK    7  A    between atoms: _16  and  _18
REMARK    8  A    between atoms: _18  and  _19
REMARK    9  A    between atoms: _22  and  _24
REMARK   10  A    between atoms: _24  and  _25
REMARK   11  A    between atoms: _24  and  _27
REMARK   12  A    between atoms: _27  and  _28
REMARK   13  A    between atoms: _33  and  _35
REMARK   14  A    between atoms: _35  and  _36
REMARK   15  A    between atoms: _35  and  _38
REMARK   16  A    between atoms: _38  and  _39
REMARK   17  A    between atoms: _41  and  _43
REMARK   18  A    between atoms: _43  and  _44
REMARK   19  A    between atoms: _43  and  _46
REMARK   20  A    between atoms: _46  and  _47
REMARK   21  A    between atoms: _49  and  _51
REMARK   22  A    between atoms: _51  and  _52
REMARK   23  A    between atoms: _54  and  _56
REMARK   24  A    between atoms: _56  and  _57
REMARK   25  A    between atoms: _56  and  _59
REMARK   26  A    between atoms: _59  and  _60
REMARK   27  A    between atoms: _63  and  _65
REMARK   28  A    between atoms: _65  and  _66
REMARK   29  A    between atoms: _65  and  _68
REMARK   30  A    between atoms: _68  and  _69
REMARK   31  A    between atoms: _69  and  _70
REMARK   32  A    between atoms: _75  and  _77
REMARK   33  A    between atoms: _77  and  _78
REMARK   34  A    between atoms: _77  and  _80
REMARK   35  A    between atoms: _80  and  _81
REMARK   36  A    between atoms: _81  and  _82
REMARK   37  A    between atoms: _87  and  _89
REMARK   38  A    between atoms: _89  and  _90
REMARK   39  A    between atoms: _89  and  _92
REMARK   40  A    between atoms: _92  and  _93
REMARK   41  A    between atoms: _95  and  _97
REMARK   42  A    between atoms: _97  and  _98
REMARK   43  A    between atoms: _97  and  _100
REMARK   44  A    between atoms: _100  and  _101
REMARK   45  A    between atoms: _104  and  _106
REMARK   46  A    between atoms: _106  and  _107
REMARK   47  A    between atoms: _106  and  _109
REMARK   48  A    between atoms: _112  and  _114
REMARK   49  A    between atoms: _114  and  _115
REMARK   50  A    between atoms: _114  and  _117
REMARK   51  A    between atoms: _117  and  _118
REMARK   52  A    between atoms: _123  and  _125
REMARK   53  A    between atoms: _125  and  _126
REMARK   54  A    between atoms: _125  and  _128
REMARK   55  A    between atoms: _128  and  _129
REMARK   56  A    between atoms: _129  and  _130
REMARK   57  A    between atoms: _130  and  _131
REMARK   58  A    between atoms: _140  and  _142
REMARK   59  A    between atoms: _142  and  _143
REMARK   60  A    between atoms: _142  and  _145
REMARK   61  A    between atoms: _145  and  _146
REMARK   62  A    between atoms: _148  and  _150
REMARK   63  A    between atoms: _150  and  _151
REMARK   64  A    between atoms: _150  and  _153
REMARK   65  A    between atoms: _153  and  _154
REMARK   66  A    between atoms: _156  and  _158
REMARK   67  A    between atoms: _158  and  _159
REMARK   68  A    between atoms: _158  and  _161
REMARK   69  A    between atoms: _161  and  _162
REMARK   70  A    between atoms: _162  and  _163
REMARK   71  A    between atoms: _166  and  _168
REMARK   72  A    between atoms: _168  and  _169
REMARK   73  A    between atoms: _168  and  _171
REMARK   74  A    between atoms: _171  and  _172
REMARK   75  A    between atoms: _175  and  _177
REMARK   76  A    between atoms: _177  and  _178
REMARK   77  A    between atoms: _180  and  _182
REMARK   78  A    between atoms: _182  and  _183
REMARK   79  A    between atoms: _182  and  _185
REMARK   80  A    between atoms: _185  and  _186
REMARK   81  A    between atoms: _189  and  _191
REMARK   82  A    between atoms: _200  and  _203
REMARK   83  A    between atoms: _203  and  _204
REMARK   84  A    between atoms: _211  and  _212
REMARK   85  A    between atoms: _218  and  _220
REMARK   86  A    between atoms: _220  and  _221
REMARK   87  A    between atoms: _220  and  _223
REMARK   88  A    between atoms: _223  and  _224
REMARK   89  A    between atoms: _229  and  _230
REMARK   90  A    between atoms: _232  and  _234
REMARK   91  A    between atoms: _238  and  _240
REMARK   92  A    between atoms: _245  and  _246
REMARK   93  A    between atoms: _252  and  _254
REMARK   94  A    between atoms: _254  and  _255
REMARK                            x       y       z     vdW  Elec       q    Type
REMARK                         _______ _______ _______ _____ _____    ______ ____
ROOT
ATOM      1  O   HOH     1      39.673   5.259 -10.307  0.00  0.00    +0.000 OA
ENDROOT
TORSDOF 0
REMARK  Name = ../refined-set-2016/2jdk/2jdk_pocket.pdb
REMARK  94 active torsions:
REMARK  status: ('A' for Active; 'I' for Inactive)
REMARK    1  A    between atoms: _1  and  _3
REMARK    2  A    between atoms: _3  and  _4
REMARK    3  A    between atoms: _3  and  _6
REMARK    4  A    between atoms: _6  and  _7
REMARK    5  A    between atoms: _10  and  _12
REMARK    6  A    between atoms: _12  and  _13
REMARK    7  A    between atoms: _16  and  _18
REMARK    8  A    between atoms: _18  and  _19
REMARK    9  A    between atoms: _22  and  _24
REMARK   10  A    between atoms: _24  and  _25
REMARK   11  A    between atoms: _24  and  _27
REMARK   12  A    between atoms: _27  and  _28
REMARK   13  A    between atoms: _33  and  _35
REMARK   14  A    between atoms: _35  and  _36
REMARK   15  A    between atoms: _35  and  _38
REMARK   16  A    between atoms: _38  and  _39
REMARK   17  A    between atoms: _41  and  _43
REMARK   18  A    between atoms: _43  and  _44
REMARK   19  A    between atoms: _43  and  _46
REMARK   20  A    between atoms: _46  and  _47
REMARK   21  A    between atoms: _49  and  _51
REMARK   22  A    between atoms: _51  and  _52
REMARK   23  A    between atoms: _54  and  _56
REMARK   24  A    between atoms: _56  and  _57
REMARK   25  A    between atoms: _56  and  _59
REMARK   26  A    between atoms: _59  and  _60
REMARK   27  A    between atoms: _63  and  _65
REMARK   28  A    between atoms: _65  and  _66
REMARK   29  A    between atoms: _65  and  _68
REMARK   30  A    between atoms: _68  and  _69
REMARK   31  A    between atoms: _69  and  _70
REMARK   32  A    between atoms: _75  and  _77
REMARK   33  A    between atoms: _77  and  _78
REMARK   34  A    between atoms: _77  and  _80
REMARK   35  A    between atoms: _80  and  _81
REMARK   36  A    between atoms: _81  and  _82
REMARK   37  A    between atoms: _87  and  _89
REMARK   38  A    between atoms: _89  and  _90
REMARK   39  A    between atoms: _89  and  _92
REMARK   40  A    between atoms: _92  and  _93
REMARK   41  A    between atoms: _95  and  _97
REMARK   42  A    between atoms: _97  and  _98
REMARK   43  A    between atoms: _97  and  _100
REMARK   44  A    between atoms: _100  and  _101
REMARK   45  A    between atoms: _104  and  _106
REMARK   46  A    between atoms: _106  and  _107
REMARK   47  A    between atoms: _106  and  _109
REMARK   48  A    between atoms: _112  and  _114
REMARK   49  A    between atoms: _114  and  _115
REMARK   50  A    between atoms: _114  and  _117
REMARK   51  A    between atoms: _117  and  _118
REMARK   52  A    between atoms: _123  and  _125
REMARK   53  A    between atoms: _125  and  _126
REMARK   54  A    between atoms: _125  and  _128
REMARK   55  A    between atoms: _128  and  _129
REMARK   56  A    between atoms: _129  and  _130
REMARK   57  A    between atoms: _130  and  _131
REMARK   58  A    between atoms: _140  and  _142
REMARK   59  A    between atoms: _142  and  _143
REMARK   60  A    between atoms: _142  and  _145
REMARK   61  A    between atoms: _145  and  _146
REMARK   62  A    between atoms: _148  and  _150
REMARK   63  A    between atoms: _150  and  _151
REMARK   64  A    between atoms: _150  and  _153
REMARK   65  A    between atoms: _153  and  _154
REMARK   66  A    between atoms: _156  and  _158
REMARK   67  A    between atoms: _158  and  _159
REMARK   68  A    between atoms: _158  and  _161
REMARK   69  A    between atoms: _161  and  _162
REMARK   70  A    between atoms: _162  and  _163
REMARK   71  A    between atoms: _166  and  _168
REMARK   72  A    between atoms: _168  and  _169
REMARK   73  A    between atoms: _168  and  _171
REMARK   74  A    between atoms: _171  and  _172
REMARK   75  A    between atoms: _175  and  _177
REMARK   76  A    between atoms: _177  and  _178
REMARK   77  A    between atoms: _180  and  _182
REMARK   78  A    between atoms: _182  and  _183
REMARK   79  A    between atoms: _182  and  _185
REMARK   80  A    between atoms: _185  and  _186
REMARK   81  A    between atoms: _189  and  _191
REMARK   82  A    between atoms: _200  and  _203
REMARK   83  A    between atoms: _203  and  _204
REMARK   84  A    between atoms: _211  and  _212
REMARK   85  A    between atoms: _218  and  _220
REMARK   86  A    between atoms: _220  and  _221
REMARK   87  A    between atoms: _220  and  _223
REMARK   88  A    between atoms: _223  and  _224
REMARK   89  A    between atoms: _229  and  _230
REMARK   90  A    between atoms: _232  and  _234
REMARK   91  A    between atoms: _238  and  _240
REMARK   92  A    between atoms: _245  and  _246
REMARK   93  A    between atoms: _252  and  _254
REMARK   94  A    between atoms: _254  and  _255
REMARK                            x       y       z     vdW  Elec       q    Type
REMARK                         _______ _______ _______ _____ _____    ______ ____
ROOT
ATOM      1  O   HOH     1      40.895   2.137  -8.290  0.00  0.00    +0.000 OA
ENDROOT
TORSDOF 0
REMARK  Name = ../refined-set-2016/2jdk/2jdk_pocket.pdb
REMARK  94 active torsions:
REMARK  status: ('A' for Active; 'I' for Inactive)
REMARK    1  A    between atoms: _1  and  _3
REMARK    2  A    between atoms: _3  and  _4
REMARK    3  A    between atoms: _3  and  _6
REMARK    4  A    between atoms: _6  and  _7
REMARK    5  A    between atoms: _10  and  _12
REMARK    6  A    between atoms: _12  and  _13
REMARK    7  A    between atoms: _16  and  _18
REMARK    8  A    between atoms: _18  and  _19
REMARK    9  A    between atoms: _22  and  _24
REMARK   10  A    between atoms: _24  and  _25
REMARK   11  A    between atoms: _24  and  _27
REMARK   12  A    between atoms: _27  and  _28
REMARK   13  A    between atoms: _33  and  _35
REMARK   14  A    between atoms: _35  and  _36
REMARK   15  A    between atoms: _35  and  _38
REMARK   16  A    between atoms: _38  and  _39
REMARK   17  A    between atoms: _41  and  _43
REMARK   18  A    between atoms: _43  and  _44
REMARK   19  A    between atoms: _43  and  _46
REMARK   20  A    between atoms: _46  and  _47
REMARK   21  A    between atoms: _49  and  _51
REMARK   22  A    between atoms: _51  and  _52
REMARK   23  A    between atoms: _54  and  _56
REMARK   24  A    between atoms: _56  and  _57
REMARK   25  A    between atoms: _56  and  _59
REMARK   26  A    between atoms: _59  and  _60
REMARK   27  A    between atoms: _63  and  _65
REMARK   28  A    between atoms: _65  and  _66
REMARK   29  A    between atoms: _65  and  _68
REMARK   30  A    between atoms: _68  and  _69
REMARK   31  A    between atoms: _69  and  _70
REMARK   32  A    between atoms: _75  and  _77
REMARK   33  A    between atoms: _77  and  _78
REMARK   34  A    between atoms: _77  and  _80
REMARK   35  A    between atoms: _80  and  _81
REMARK   36  A    between atoms: _81  and  _82
REMARK   37  A    between atoms: _87  and  _89
REMARK   38  A    between atoms: _89  and  _90
REMARK   39  A    between atoms: _89  and  _92
REMARK   40  A    between atoms: _92  and  _93
REMARK   41  A    between atoms: _95  and  _97
REMARK   42  A    between atoms: _97  and  _98
REMARK   43  A    between atoms: _97  and  _100
REMARK   44  A    between atoms: _100  and  _101
REMARK   45  A    between atoms: _104  and  _106
REMARK   46  A    between atoms: _106  and  _107
REMARK   47  A    between atoms: _106  and  _109
REMARK   48  A    between atoms: _112  and  _114
REMARK   49  A    between atoms: _114  and  _115
REMARK   50  A    between atoms: _114  and  _117
REMARK   51  A    between atoms: _117  and  _118
REMARK   52  A    between atoms: _123  and  _125
REMARK   53  A    between atoms: _125  and  _126
REMARK   54  A    between atoms: _125  and  _128
REMARK   55  A    between atoms: _128  and  _129
REMARK   56  A    between atoms: _129  and  _130
REMARK   57  A    between atoms: _130  and  _131
REMARK   58  A    between atoms: _140  and  _142
REMARK   59  A    between atoms: _142  and  _143
REMARK   60  A    between atoms: _142  and  _145
REMARK   61  A    between atoms: _145  and  _146
REMARK   62  A    between atoms: _148  and  _150
REMARK   63  A    between atoms: _150  and  _151
REMARK   64  A    between atoms: _150  and  _153
REMARK   65  A    between atoms: _153  and  _154
REMARK   66  A    between atoms: _156  and  _158
REMARK   67  A    between atoms: _158  and  _159
REMARK   68  A    between atoms: _158  and  _161
REMARK   69  A    between atoms: _161  and  _162
REMARK   70  A    between atoms: _162  and  _163
REMARK   71  A    between atoms: _166  and  _168
REMARK   72  A    between atoms: _168  and  _169
REMARK   73  A    between atoms: _168  and  _171
REMARK   74  A    between atoms: _171  and  _172
REMARK   75  A    between atoms: _175  and  _177
REMARK   76  A    between atoms: _177  and  _178
REMARK   77  A    between atoms: _180  and  _182
REMARK   78  A    between atoms: _182  and  _183
REMARK   79  A    between atoms: _182  and  _185
REMARK   80  A    between atoms: _185  and  _186
REMARK   81  A    between atoms: _189  and  _191
REMARK   82  A    between atoms: _200  and  _203
REMARK   83  A    between atoms: _203  and  _204
REMARK   84  A    between atoms: _211  and  _212
REMARK   85  A    between atoms: _218  and  _220
REMARK   86  A    between atoms: _220  and  _221
REMARK   87  A    between atoms: _220  and  _223
REMARK   88  A    between atoms: _223  and  _224
REMARK   89  A    between atoms: _229  and  _230
REMARK   90  A    between atoms: _232  and  _234
REMARK   91  A    between atoms: _238  and  _240
REMARK   92  A    between atoms: _245  and  _246
REMARK   93  A    between atoms: _252  and  _254
REMARK   94  A    between atoms: _254  and  _255
REMARK                            x       y       z     vdW  Elec       q    Type
REMARK                         _______ _______ _______ _____ _____    ______ ____
ROOT
ATOM      1  O   HOH     1      42.634   8.217  -2.620  0.00  0.00    +0.000 OA
ENDROOT
TORSDOF 0
