REMARK  Name = ../refined-set-2016/1mrw/1mrw_pocket.pdb
REMARK  233 active torsions:
REMARK  status: ('A' for Active; 'I' for Inactive)
REMARK    1  A    between atoms: _1  and  _3
REMARK    2  A    between atoms: _3  and  _4
REMARK    3  A    between atoms: _3  and  _6
REMARK    4  A    between atoms: _6  and  _7
REMARK    5  A    between atoms: _7  and  _8
REMARK    6  A    between atoms: _8  and  _9
REMARK    7  A    between atoms: _18  and  _20
REMARK    8  A    between atoms: _20  and  _21
REMARK    9  A    between atoms: _20  and  _23
REMARK   10  A    between atoms: _23  and  _24
REMARK   11  A    between atoms: _27  and  _29
REMARK   12  A    between atoms: _29  and  _30
REMARK   13  A    between atoms: _29  and  _32
REMARK   14  A    between atoms: _32  and  _33
REMARK   15  A    between atoms: _36  and  _38
REMARK   16  A    between atoms: _38  and  _39
REMARK   17  A    between atoms: _38  and  _41
REMARK   18  A    between atoms: _41  and  _42
REMARK   19  A    between atoms: _45  and  _47
REMARK   20  A    between atoms: _47  and  _48
REMARK   21  A    between atoms: _47  and  _50
REMARK   22  A    between atoms: _50  and  _51
REMARK   23  A    between atoms: _54  and  _56
REMARK   24  A    between atoms: _56  and  _57
REMARK   25  A    between atoms: _56  and  _59
REMARK   26  A    between atoms: _59  and  _60
REMARK   27  A    between atoms: _63  and  _65
REMARK   28  A    between atoms: _65  and  _66
REMARK   29  A    between atoms: _68  and  _70
REMARK   30  A    between atoms: _70  and  _71
REMARK   31  A    between atoms: _74  and  _76
REMARK   32  A    between atoms: _76  and  _77
REMARK   33  A    between atoms: _76  and  _79
REMARK   34  A    between atoms: _79  and  _80
REMARK   35  A    between atoms: _83  and  _85
REMARK   36  A    between atoms: _85  and  _86
REMARK   37  A    between atoms: _85  and  _88
REMARK   38  A    between atoms: _88  and  _89
REMARK   39  A    between atoms: _92  and  _94
REMARK   40  A    between atoms: _94  and  _95
REMARK   41  A    between atoms: _94  and  _97
REMARK   42  A    between atoms: _97  and  _98
REMARK   43  A    between atoms: _101  and  _103
REMARK   44  A    between atoms: _103  and  _104
REMARK   45  A    between atoms: _103  and  _106
REMARK   46  A    between atoms: _109  and  _111
REMARK   47  A    between atoms: _111  and  _112
REMARK   48  A    between atoms: _111  and  _114
REMARK   49  A    between atoms: _114  and  _115
REMARK   50  A    between atoms: _115  and  _116
REMARK   51  A    between atoms: _116  and  _117
REMARK   52  A    between atoms: _117  and  _118
REMARK   53  A    between atoms: _122  and  _124
REMARK   54  A    between atoms: _124  and  _125
REMARK   55  A    between atoms: _124  and  _127
REMARK   56  A    between atoms: _127  and  _128
REMARK   57  A    between atoms: _128  and  _129
REMARK   58  A    between atoms: _131  and  _133
REMARK   59  A    between atoms: _133  and  _134
REMARK   60  A    between atoms: _133  and  _136
REMARK   61  A    between atoms: _136  and  _137
REMARK   62  A    between atoms: _140  and  _142
REMARK   63  A    between atoms: _142  and  _143
REMARK   64  A    between atoms: _145  and  _147
REMARK   65  A    between atoms: _147  and  _148
REMARK   66  A    between atoms: _150  and  _152
REMARK   67  A    between atoms: _152  and  _153
REMARK   68  A    between atoms: _152  and  _155
REMARK   69  A    between atoms: _155  and  _156
REMARK   70  A    between atoms: _159  and  _161
REMARK   71  A    between atoms: _161  and  _162
REMARK   72  A    between atoms: _164  and  _166
REMARK   73  A    between atoms: _166  and  _167
REMARK   74  A    between atoms: _169  and  _171
REMARK   75  A    between atoms: _171  and  _172
REMARK   76  A    between atoms: _171  and  _174
REMARK   77  A    between atoms: _174  and  _175
REMARK   78  A    between atoms: _181  and  _183
REMARK   79  A    between atoms: _183  and  _184
REMARK   80  A    between atoms: _183  and  _186
REMARK   81  A    between atoms: _186  and  _187
REMARK   82  A    between atoms: _190  and  _192
REMARK   83  A    between atoms: _192  and  _193
REMARK   84  A    between atoms: _192  and  _195
REMARK   85  A    between atoms: _195  and  _196
REMARK   86  A    between atoms: _199  and  _201
REMARK   87  A    between atoms: _201  and  _202
REMARK   88  A    between atoms: _201  and  _204
REMARK   89  A    between atoms: _204  and  _205
REMARK   90  A    between atoms: _209  and  _210
REMARK   91  A    between atoms: _215  and  _217
REMARK   92  A    between atoms: _217  and  _218
REMARK   93  A    between atoms: _217  and  _220
REMARK   94  A    between atoms: _223  and  _225
REMARK   95  A    between atoms: _225  and  _226
REMARK   96  A    between atoms: _225  and  _228
REMARK   97  A    between atoms: _228  and  _229
REMARK   98  A    between atoms: _234  and  _236
REMARK   99  A    between atoms: _236  and  _237
REMARK  100  A    between atoms: _236  and  _239
REMARK  101  A    between atoms: _239  and  _240
REMARK  102  A    between atoms: _243  and  _245
REMARK  103  A    between atoms: _245  and  _246
REMARK  104  A    between atoms: _245  and  _248
REMARK  105  A    between atoms: _248  and  _249
REMARK  106  A    between atoms: _252  and  _254
REMARK  107  A    between atoms: _254  and  _255
REMARK  108  A    between atoms: _257  and  _259
REMARK  109  A    between atoms: _259  and  _260
REMARK  110  A    between atoms: _259  and  _262
REMARK  111  A    between atoms: _262  and  _263
REMARK  112  A    between atoms: _263  and  _264
REMARK  113  A    between atoms: _264  and  _265
REMARK  114  A    between atoms: _274  and  _276
REMARK  115  A    between atoms: _276  and  _277
REMARK  116  A    between atoms: _276  and  _279
REMARK  117  A    between atoms: _279  and  _280
REMARK  118  A    between atoms: _280  and  _281
REMARK  119  A    between atoms: _281  and  _282
REMARK  120  A    between atoms: _291  and  _293
REMARK  121  A    between atoms: _293  and  _294
REMARK  122  A    between atoms: _293  and  _296
REMARK  123  A    between atoms: _296  and  _297
REMARK  124  A    between atoms: _300  and  _302
REMARK  125  A    between atoms: _302  and  _303
REMARK  126  A    between atoms: _302  and  _305
REMARK  127  A    between atoms: _305  and  _306
REMARK  128  A    between atoms: _309  and  _311
REMARK  129  A    between atoms: _311  and  _312
REMARK  130  A    between atoms: _311  and  _314
REMARK  131  A    between atoms: _314  and  _315
REMARK  132  A    between atoms: _318  and  _320
REMARK  133  A    between atoms: _320  and  _321
REMARK  134  A    between atoms: _320  and  _323
REMARK  135  A    between atoms: _323  and  _324
REMARK  136  A    between atoms: _327  and  _329
REMARK  137  A    between atoms: _329  and  _330
REMARK  138  A    between atoms: _329  and  _332
REMARK  139  A    between atoms: _332  and  _333
REMARK  140  A    between atoms: _336  and  _338
REMARK  141  A    between atoms: _338  and  _339
REMARK  142  A    between atoms: _341  and  _343
REMARK  143  A    between atoms: _343  and  _344
REMARK  144  A    between atoms: _347  and  _349
REMARK  145  A    between atoms: _349  and  _350
REMARK  146  A    between atoms: _349  and  _352
REMARK  147  A    between atoms: _352  and  _353
REMARK  148  A    between atoms: _356  and  _358
REMARK  149  A    between atoms: _358  and  _359
REMARK  150  A    between atoms: _358  and  _361
REMARK  151  A    between atoms: _361  and  _362
REMARK  152  A    between atoms: _365  and  _367
REMARK  153  A    between atoms: _367  and  _368
REMARK  154  A    between atoms: _367  and  _370
REMARK  155  A    between atoms: _370  and  _371
REMARK  156  A    between atoms: _374  and  _376
REMARK  157  A    between atoms: _376  and  _377
REMARK  158  A    between atoms: _376  and  _379
REMARK  159  A    between atoms: _382  and  _384
REMARK  160  A    between atoms: _384  and  _385
REMARK  161  A    between atoms: _384  and  _387
REMARK  162  A    between atoms: _387  and  _388
REMARK  163  A    between atoms: _388  and  _389
REMARK  164  A    between atoms: _389  and  _390
REMARK  165  A    between atoms: _390  and  _391
REMARK  166  A    between atoms: _395  and  _397
REMARK  167  A    between atoms: _397  and  _398
REMARK  168  A    between atoms: _397  and  _400
REMARK  169  A    between atoms: _400  and  _401
REMARK  170  A    between atoms: _401  and  _402
REMARK  171  A    between atoms: _404  and  _406
REMARK  172  A    between atoms: _406  and  _407
REMARK  173  A    between atoms: _406  and  _409
REMARK  174  A    between atoms: _409  and  _410
REMARK  175  A    between atoms: _413  and  _415
REMARK  176  A    between atoms: _415  and  _416
REMARK  177  A    between atoms: _418  and  _420
REMARK  178  A    between atoms: _420  and  _421
REMARK  179  A    between atoms: _423  and  _425
REMARK  180  A    between atoms: _425  and  _426
REMARK  181  A    between atoms: _425  and  _428
REMARK  182  A    between atoms: _428  and  _429
REMARK  183  A    between atoms: _432  and  _434
REMARK  184  A    between atoms: _434  and  _435
REMARK  185  A    between atoms: _437  and  _439
REMARK  186  A    between atoms: _439  and  _440
REMARK  187  A    between atoms: _442  and  _444
REMARK  188  A    between atoms: _444  and  _445
REMARK  189  A    between atoms: _444  and  _447
REMARK  190  A    between atoms: _447  and  _448
REMARK  191  A    between atoms: _454  and  _456
REMARK  192  A    between atoms: _456  and  _457
REMARK  193  A    between atoms: _456  and  _459
REMARK  194  A    between atoms: _459  and  _460
REMARK  195  A    between atoms: _463  and  _465
REMARK  196  A    between atoms: _465  and  _466
REMARK  197  A    between atoms: _465  and  _468
REMARK  198  A    between atoms: _471  and  _473
REMARK  199  A    between atoms: _473  and  _474
REMARK  200  A    between atoms: _473  and  _476
REMARK  201  A    between atoms: _476  and  _477
REMARK  202  A    between atoms: _480  and  _482
REMARK  203  A    between atoms: _482  and  _483
REMARK  204  A    between atoms: _482  and  _485
REMARK  205  A    between atoms: _485  and  _486
REMARK  206  A    between atoms: _490  and  _491
REMARK  207  A    between atoms: _496  and  _498
REMARK  208  A    between atoms: _498  and  _499
REMARK  209  A    between atoms: _498  and  _501
REMARK  210  A    between atoms: _504  and  _506
REMARK  211  A    between atoms: _506  and  _507
REMARK  212  A    between atoms: _506  and  _509
REMARK  213  A    between atoms: _509  and  _510
REMARK  214  A    between atoms: _515  and  _517
REMARK  215  A    between atoms: _517  and  _518
REMARK  216  A    between atoms: _517  and  _520
REMARK  217  A    between atoms: _520  and  _521
REMARK  218  A    between atoms: _524  and  _526
REMARK  219  A    between atoms: _526  and  _527
REMARK  220  A    between atoms: _526  and  _529
REMARK  221  A    between atoms: _529  and  _530
REMARK  222  A    between atoms: _533  and  _535
REMARK  223  A    between atoms: _535  and  _536
REMARK  224  A    between atoms: _538  and  _540
REMARK  225  A    between atoms: _540  and  _541
REMARK  226  A    between atoms: _540  and  _543
REMARK  227  A    between atoms: _543  and  _544
REMARK  228  A    between atoms: _544  and  _545
REMARK  229  A    between atoms: _545  and  _546
REMARK  230  A    between atoms: _555  and  _557
REMARK  231  A    between atoms: _557  and  _558
REMARK  232  A    between atoms: _557  and  _560
REMARK  233  A    between atoms: _560  and  _561
REMARK                            x       y       z     vdW  Elec       q    Type
REMARK                         _______ _______ _______ _____ _____    ______ ____
ROOT
ATOM      1  NE  ARG A   1       7.021  20.424  15.418  0.00  0.00    -0.265 N 
ATOM      2  HE  ARG A   1       6.764  19.995  16.330  0.00  0.00    +0.259 HD
ATOM      3  CZ  ARG A   1       8.025  19.879  14.736  0.00  0.00    +0.342 C 
ATOM      4  NH2 ARG A   1       8.663  18.822  15.225  0.00  0.00    -0.292 N 
ATOM      5 HH21 ARG A   1       8.378  18.420  16.141  0.00  0.00    +0.255 HD
ATOM      6 HH22 ARG A   1       9.448  18.396  14.692  0.00  0.00    +0.255 HD
ATOM      7  NH1 ARG A   1       8.394  20.391  13.566  0.00  0.00    -0.292 N 
ATOM      8 HH11 ARG A   1       7.897  21.220  13.181  0.00  0.00    +0.255 HD
ATOM      9 HH12 ARG A   1       9.179  19.963  13.035  0.00  0.00    +0.255 HD
ENDROOT
BRANCH   1  10
ATOM     10  CD  ARG A   1       6.256  21.586  14.971  0.00  0.00    +0.174 C 
BRANCH  10  11
ATOM     11  CG  ARG A   1       5.424  22.169  16.098  0.00  0.00    +0.045 C 
BRANCH  11  12
ATOM     12  CB  ARG A   1       4.733  23.449  15.668  0.00  0.00    +0.029 C 
BRANCH  12  13
ATOM     13  CA  ARG A   1       4.086  24.203  16.829  0.00  0.00    +0.133 C 
BRANCH  13  14
ATOM     14  N   ARG A   1       2.969  23.441  17.365  0.00  0.00    -0.239 NA
ATOM     15  H   ARG A   1       2.750  22.498  16.984  0.00  0.00    +0.142 HD
ENDBRANCH  13  14
BRANCH  13  16
ATOM     16  C   ARG A   1       3.672  25.602  16.385  0.00  0.00    +0.224 C 
ATOM     17  O   ARG A   1       2.651  25.780  15.716  0.00  0.00    -0.287 OA
ENDBRANCH  13  16
ENDBRANCH  12  13
ENDBRANCH  11  12
ENDBRANCH  10  11
ENDBRANCH   1  10
TORSDOF 6
REMARK  Name = ../refined-set-2016/1mrw/1mrw_pocket.pdb
REMARK  233 active torsions:
REMARK  status: ('A' for Active; 'I' for Inactive)
REMARK    1  A    between atoms: _1  and  _3
REMARK    2  A    between atoms: _3  and  _4
REMARK    3  A    between atoms: _3  and  _6
REMARK    4  A    between atoms: _6  and  _7
REMARK    5  A    between atoms: _7  and  _8
REMARK    6  A    between atoms: _8  and  _9
REMARK    7  A    between atoms: _18  and  _20
REMARK    8  A    between atoms: _20  and  _21
REMARK    9  A    between atoms: _20  and  _23
REMARK   10  A    between atoms: _23  and  _24
REMARK   11  A    between atoms: _27  and  _29
REMARK   12  A    between atoms: _29  and  _30
REMARK   13  A    between atoms: _29  and  _32
REMARK   14  A    between atoms: _32  and  _33
REMARK   15  A    between atoms: _36  and  _38
REMARK   16  A    between atoms: _38  and  _39
REMARK   17  A    between atoms: _38  and  _41
REMARK   18  A    between atoms: _41  and  _42
REMARK   19  A    between atoms: _45  and  _47
REMARK   20  A    between atoms: _47  and  _48
REMARK   21  A    between atoms: _47  and  _50
REMARK   22  A    between atoms: _50  and  _51
REMARK   23  A    between atoms: _54  and  _56
REMARK   24  A    between atoms: _56  and  _57
REMARK   25  A    between atoms: _56  and  _59
REMARK   26  A    between atoms: _59  and  _60
REMARK   27  A    between atoms: _63  and  _65
REMARK   28  A    between atoms: _65  and  _66
REMARK   29  A    between atoms: _68  and  _70
REMARK   30  A    between atoms: _70  and  _71
REMARK   31  A    between atoms: _74  and  _76
REMARK   32  A    between atoms: _76  and  _77
REMARK   33  A    between atoms: _76  and  _79
REMARK   34  A    between atoms: _79  and  _80
REMARK   35  A    between atoms: _83  and  _85
REMARK   36  A    between atoms: _85  and  _86
REMARK   37  A    between atoms: _85  and  _88
REMARK   38  A    between atoms: _88  and  _89
REMARK   39  A    between atoms: _92  and  _94
REMARK   40  A    between atoms: _94  and  _95
REMARK   41  A    between atoms: _94  and  _97
REMARK   42  A    between atoms: _97  and  _98
REMARK   43  A    between atoms: _101  and  _103
REMARK   44  A    between atoms: _103  and  _104
REMARK   45  A    between atoms: _103  and  _106
REMARK   46  A    between atoms: _109  and  _111
REMARK   47  A    between atoms: _111  and  _112
REMARK   48  A    between atoms: _111  and  _114
REMARK   49  A    between atoms: _114  and  _115
REMARK   50  A    between atoms: _115  and  _116
REMARK   51  A    between atoms: _116  and  _117
REMARK   52  A    between atoms: _117  and  _118
REMARK   53  A    between atoms: _122  and  _124
REMARK   54  A    between atoms: _124  and  _125
REMARK   55  A    between atoms: _124  and  _127
REMARK   56  A    between atoms: _127  and  _128
REMARK   57  A    between atoms: _128  and  _129
REMARK   58  A    between atoms: _131  and  _133
REMARK   59  A    between atoms: _133  and  _134
REMARK   60  A    between atoms: _133  and  _136
REMARK   61  A    between atoms: _136  and  _137
REMARK   62  A    between atoms: _140  and  _142
REMARK   63  A    between atoms: _142  and  _143
REMARK   64  A    between atoms: _145  and  _147
REMARK   65  A    between atoms: _147  and  _148
REMARK   66  A    between atoms: _150  and  _152
REMARK   67  A    between atoms: _152  and  _153
REMARK   68  A    between atoms: _152  and  _155
REMARK   69  A    between atoms: _155  and  _156
REMARK   70  A    between atoms: _159  and  _161
REMARK   71  A    between atoms: _161  and  _162
REMARK   72  A    between atoms: _164  and  _166
REMARK   73  A    between atoms: _166  and  _167
REMARK   74  A    between atoms: _169  and  _171
REMARK   75  A    between atoms: _171  and  _172
REMARK   76  A    between atoms: _171  and  _174
REMARK   77  A    between atoms: _174  and  _175
REMARK   78  A    between atoms: _181  and  _183
REMARK   79  A    between atoms: _183  and  _184
REMARK   80  A    between atoms: _183  and  _186
REMARK   81  A    between atoms: _186  and  _187
REMARK   82  A    between atoms: _190  and  _192
REMARK   83  A    between atoms: _192  and  _193
REMARK   84  A    between atoms: _192  and  _195
REMARK   85  A    between atoms: _195  and  _196
REMARK   86  A    between atoms: _199  and  _201
REMARK   87  A    between atoms: _201  and  _202
REMARK   88  A    between atoms: _201  and  _204
REMARK   89  A    between atoms: _204  and  _205
REMARK   90  A    between atoms: _209  and  _210
REMARK   91  A    between atoms: _215  and  _217
REMARK   92  A    between atoms: _217  and  _218
REMARK   93  A    between atoms: _217  and  _220
REMARK   94  A    between atoms: _223  and  _225
REMARK   95  A    between atoms: _225  and  _226
REMARK   96  A    between atoms: _225  and  _228
REMARK   97  A    between atoms: _228  and  _229
REMARK   98  A    between atoms: _234  and  _236
REMARK   99  A    between atoms: _236  and  _237
REMARK  100  A    between atoms: _236  and  _239
REMARK  101  A    between atoms: _239  and  _240
REMARK  102  A    between atoms: _243  and  _245
REMARK  103  A    between atoms: _245  and  _246
REMARK  104  A    between atoms: _245  and  _248
REMARK  105  A    between atoms: _248  and  _249
REMARK  106  A    between atoms: _252  and  _254
REMARK  107  A    between atoms: _254  and  _255
REMARK  108  A    between atoms: _257  and  _259
REMARK  109  A    between atoms: _259  and  _260
REMARK  110  A    between atoms: _259  and  _262
REMARK  111  A    between atoms: _262  and  _263
REMARK  112  A    between atoms: _263  and  _264
REMARK  113  A    between atoms: _264  and  _265
REMARK  114  A    between atoms: _274  and  _276
REMARK  115  A    between atoms: _276  and  _277
REMARK  116  A    between atoms: _276  and  _279
REMARK  117  A    between atoms: _279  and  _280
REMARK  118  A    between atoms: _280  and  _281
REMARK  119  A    between atoms: _281  and  _282
REMARK  120  A    between atoms: _291  and  _293
REMARK  121  A    between atoms: _293  and  _294
REMARK  122  A    between atoms: _293  and  _296
REMARK  123  A    between atoms: _296  and  _297
REMARK  124  A    between atoms: _300  and  _302
REMARK  125  A    between atoms: _302  and  _303
REMARK  126  A    between atoms: _302  and  _305
REMARK  127  A    between atoms: _305  and  _306
REMARK  128  A    between atoms: _309  and  _311
REMARK  129  A    between atoms: _311  and  _312
REMARK  130  A    between atoms: _311  and  _314
REMARK  131  A    between atoms: _314  and  _315
REMARK  132  A    between atoms: _318  and  _320
REMARK  133  A    between atoms: _320  and  _321
REMARK  134  A    between atoms: _320  and  _323
REMARK  135  A    between atoms: _323  and  _324
REMARK  136  A    between atoms: _327  and  _329
REMARK  137  A    between atoms: _329  and  _330
REMARK  138  A    between atoms: _329  and  _332
REMARK  139  A    between atoms: _332  and  _333
REMARK  140  A    between atoms: _336  and  _338
REMARK  141  A    between atoms: _338  and  _339
REMARK  142  A    between atoms: _341  and  _343
REMARK  143  A    between atoms: _343  and  _344
REMARK  144  A    between atoms: _347  and  _349
REMARK  145  A    between atoms: _349  and  _350
REMARK  146  A    between atoms: _349  and  _352
REMARK  147  A    between atoms: _352  and  _353
REMARK  148  A    between atoms: _356  and  _358
REMARK  149  A    between atoms: _358  and  _359
REMARK  150  A    between atoms: _358  and  _361
REMARK  151  A    between atoms: _361  and  _362
REMARK  152  A    between atoms: _365  and  _367
REMARK  153  A    between atoms: _367  and  _368
REMARK  154  A    between atoms: _367  and  _370
REMARK  155  A    between atoms: _370  and  _371
REMARK  156  A    between atoms: _374  and  _376
REMARK  157  A    between atoms: _376  and  _377
REMARK  158  A    between atoms: _376  and  _379
REMARK  159  A    between atoms: _382  and  _384
REMARK  160  A    between atoms: _384  and  _385
REMARK  161  A    between atoms: _384  and  _387
REMARK  162  A    between atoms: _387  and  _388
REMARK  163  A    between atoms: _388  and  _389
REMARK  164  A    between atoms: _389  and  _390
REMARK  165  A    between atoms: _390  and  _391
REMARK  166  A    between atoms: _395  and  _397
REMARK  167  A    between atoms: _397  and  _398
REMARK  168  A    between atoms: _397  and  _400
REMARK  169  A    between atoms: _400  and  _401
REMARK  170  A    between atoms: _401  and  _402
REMARK  171  A    between atoms: _404  and  _406
REMARK  172  A    between atoms: _406  and  _407
REMARK  173  A    between atoms: _406  and  _409
REMARK  174  A    between atoms: _409  and  _410
REMARK  175  A    between atoms: _413  and  _415
REMARK  176  A    between atoms: _415  and  _416
REMARK  177  A    between atoms: _418  and  _420
REMARK  178  A    between atoms: _420  and  _421
REMARK  179  A    between atoms: _423  and  _425
REMARK  180  A    between atoms: _425  and  _426
REMARK  181  A    between atoms: _425  and  _428
REMARK  182  A    between atoms: _428  and  _429
REMARK  183  A    between atoms: _432  and  _434
REMARK  184  A    between atoms: _434  and  _435
REMARK  185  A    between atoms: _437  and  _439
REMARK  186  A    between atoms: _439  and  _440
REMARK  187  A    between atoms: _442  and  _444
REMARK  188  A    between atoms: _444  and  _445
REMARK  189  A    between atoms: _444  and  _447
REMARK  190  A    between atoms: _447  and  _448
REMARK  191  A    between atoms: _454  and  _456
REMARK  192  A    between atoms: _456  and  _457
REMARK  193  A    between atoms: _456  and  _459
REMARK  194  A    between atoms: _459  and  _460
REMARK  195  A    between atoms: _463  and  _465
REMARK  196  A    between atoms: _465  and  _466
REMARK  197  A    between atoms: _465  and  _468
REMARK  198  A    between atoms: _471  and  _473
REMARK  199  A    between atoms: _473  and  _474
REMARK  200  A    between atoms: _473  and  _476
REMARK  201  A    between atoms: _476  and  _477
REMARK  202  A    between atoms: _480  and  _482
REMARK  203  A    between atoms: _482  and  _483
REMARK  204  A    between atoms: _482  and  _485
REMARK  205  A    between atoms: _485  and  _486
REMARK  206  A    between atoms: _490  and  _491
REMARK  207  A    between atoms: _496  and  _498
REMARK  208  A    between atoms: _498  and  _499
REMARK  209  A    between atoms: _498  and  _501
REMARK  210  A    between atoms: _504  and  _506
REMARK  211  A    between atoms: _506  and  _507
REMARK  212  A    between atoms: _506  and  _509
REMARK  213  A    between atoms: _509  and  _510
REMARK  214  A    between atoms: _515  and  _517
REMARK  215  A    between atoms: _517  and  _518
REMARK  216  A    between atoms: _517  and  _520
REMARK  217  A    between atoms: _520  and  _521
REMARK  218  A    between atoms: _524  and  _526
REMARK  219  A    between atoms: _526  and  _527
REMARK  220  A    between atoms: _526  and  _529
REMARK  221  A    between atoms: _529  and  _530
REMARK  222  A    between atoms: _533  and  _535
REMARK  223  A    between atoms: _535  and  _536
REMARK  224  A    between atoms: _538  and  _540
REMARK  225  A    between atoms: _540  and  _541
REMARK  226  A    between atoms: _540  and  _543
REMARK  227  A    between atoms: _543  and  _544
REMARK  228  A    between atoms: _544  and  _545
REMARK  229  A    between atoms: _545  and  _546
REMARK  230  A    between atoms: _555  and  _557
REMARK  231  A    between atoms: _557  and  _558
REMARK  232  A    between atoms: _557  and  _560
REMARK  233  A    between atoms: _560  and  _561
REMARK                            x       y       z     vdW  Elec       q    Type
REMARK                         _______ _______ _______ _____ _____    ______ ____
ROOT
ATOM      1  CA  LEU A   1       4.135  28.020  12.595  0.00  0.00    +0.133 C 
ENDROOT
BRANCH   1   2
ATOM      2  N   LEU A   1       3.820  27.825  14.007  0.00  0.00    -0.239 NA
ATOM      3  H   LEU A   1       2.957  27.303  14.261  0.00  0.00    +0.142 HD
ENDBRANCH   1   2
BRANCH   1   4
ATOM      4  C   LEU A   1       3.480  29.278  12.030  0.00  0.00    +0.224 C 
ATOM      5  O   LEU A   1       2.335  29.587  12.354  0.00  0.00    -0.287 OA
ENDBRANCH   1   4
BRANCH   1   6
ATOM      6  CB  LEU A   1       3.671  26.801  11.792  0.00  0.00    +0.025 C 
BRANCH   6   7
ATOM      7  CG  LEU A   1       4.317  25.463  12.162  0.00  0.00    +0.002 C 
ATOM      8  CD2 LEU A   1       5.807  25.503  11.842  0.00  0.00    +0.000 C 
ATOM      9  CD1 LEU A   1       3.636  24.331  11.401  0.00  0.00    +0.000 C 
ENDBRANCH   6   7
ENDBRANCH   1   6
TORSDOF 4
REMARK  Name = ../refined-set-2016/1mrw/1mrw_pocket.pdb
REMARK  233 active torsions:
REMARK  status: ('A' for Active; 'I' for Inactive)
REMARK    1  A    between atoms: _1  and  _3
REMARK    2  A    between atoms: _3  and  _4
REMARK    3  A    between atoms: _3  and  _6
REMARK    4  A    between atoms: _6  and  _7
REMARK    5  A    between atoms: _7  and  _8
REMARK    6  A    between atoms: _8  and  _9
REMARK    7  A    between atoms: _18  and  _20
REMARK    8  A    between atoms: _20  and  _21
REMARK    9  A    between atoms: _20  and  _23
REMARK   10  A    between atoms: _23  and  _24
REMARK   11  A    between atoms: _27  and  _29
REMARK   12  A    between atoms: _29  and  _30
REMARK   13  A    between atoms: _29  and  _32
REMARK   14  A    between atoms: _32  and  _33
REMARK   15  A    between atoms: _36  and  _38
REMARK   16  A    between atoms: _38  and  _39
REMARK   17  A    between atoms: _38  and  _41
REMARK   18  A    between atoms: _41  and  _42
REMARK   19  A    between atoms: _45  and  _47
REMARK   20  A    between atoms: _47  and  _48
REMARK   21  A    between atoms: _47  and  _50
REMARK   22  A    between atoms: _50  and  _51
REMARK   23  A    between atoms: _54  and  _56
REMARK   24  A    between atoms: _56  and  _57
REMARK   25  A    between atoms: _56  and  _59
REMARK   26  A    between atoms: _59  and  _60
REMARK   27  A    between atoms: _63  and  _65
REMARK   28  A    between atoms: _65  and  _66
REMARK   29  A    between atoms: _68  and  _70
REMARK   30  A    between atoms: _70  and  _71
REMARK   31  A    between atoms: _74  and  _76
REMARK   32  A    between atoms: _76  and  _77
REMARK   33  A    between atoms: _76  and  _79
REMARK   34  A    between atoms: _79  and  _80
REMARK   35  A    between atoms: _83  and  _85
REMARK   36  A    between atoms: _85  and  _86
REMARK   37  A    between atoms: _85  and  _88
REMARK   38  A    between atoms: _88  and  _89
REMARK   39  A    between atoms: _92  and  _94
REMARK   40  A    between atoms: _94  and  _95
REMARK   41  A    between atoms: _94  and  _97
REMARK   42  A    between atoms: _97  and  _98
REMARK   43  A    between atoms: _101  and  _103
REMARK   44  A    between atoms: _103  and  _104
REMARK   45  A    between atoms: _103  and  _106
REMARK   46  A    between atoms: _109  and  _111
REMARK   47  A    between atoms: _111  and  _112
REMARK   48  A    between atoms: _111  and  _114
REMARK   49  A    between atoms: _114  and  _115
REMARK   50  A    between atoms: _115  and  _116
REMARK   51  A    between atoms: _116  and  _117
REMARK   52  A    between atoms: _117  and  _118
REMARK   53  A    between atoms: _122  and  _124
REMARK   54  A    between atoms: _124  and  _125
REMARK   55  A    between atoms: _124  and  _127
REMARK   56  A    between atoms: _127  and  _128
REMARK   57  A    between atoms: _128  and  _129
REMARK   58  A    between atoms: _131  and  _133
REMARK   59  A    between atoms: _133  and  _134
REMARK   60  A    between atoms: _133  and  _136
REMARK   61  A    between atoms: _136  and  _137
REMARK   62  A    between atoms: _140  and  _142
REMARK   63  A    between atoms: _142  and  _143
REMARK   64  A    between atoms: _145  and  _147
REMARK   65  A    between atoms: _147  and  _148
REMARK   66  A    between atoms: _150  and  _152
REMARK   67  A    between atoms: _152  and  _153
REMARK   68  A    between atoms: _152  and  _155
REMARK   69  A    between atoms: _155  and  _156
REMARK   70  A    between atoms: _159  and  _161
REMARK   71  A    between atoms: _161  and  _162
REMARK   72  A    between atoms: _164  and  _166
REMARK   73  A    between atoms: _166  and  _167
REMARK   74  A    between atoms: _169  and  _171
REMARK   75  A    between atoms: _171  and  _172
REMARK   76  A    between atoms: _171  and  _174
REMARK   77  A    between atoms: _174  and  _175
REMARK   78  A    between atoms: _181  and  _183
REMARK   79  A    between atoms: _183  and  _184
REMARK   80  A    between atoms: _183  and  _186
REMARK   81  A    between atoms: _186  and  _187
REMARK   82  A    between atoms: _190  and  _192
REMARK   83  A    between atoms: _192  and  _193
REMARK   84  A    between atoms: _192  and  _195
REMARK   85  A    between atoms: _195  and  _196
REMARK   86  A    between atoms: _199  and  _201
REMARK   87  A    between atoms: _201  and  _202
REMARK   88  A    between atoms: _201  and  _204
REMARK   89  A    between atoms: _204  and  _205
REMARK   90  A    between atoms: _209  and  _210
REMARK   91  A    between atoms: _215  and  _217
REMARK   92  A    between atoms: _217  and  _218
REMARK   93  A    between atoms: _217  and  _220
REMARK   94  A    between atoms: _223  and  _225
REMARK   95  A    between atoms: _225  and  _226
REMARK   96  A    between atoms: _225  and  _228
REMARK   97  A    between atoms: _228  and  _229
REMARK   98  A    between atoms: _234  and  _236
REMARK   99  A    between atoms: _236  and  _237
REMARK  100  A    between atoms: _236  and  _239
REMARK  101  A    between atoms: _239  and  _240
REMARK  102  A    between atoms: _243  and  _245
REMARK  103  A    between atoms: _245  and  _246
REMARK  104  A    between atoms: _245  and  _248
REMARK  105  A    between atoms: _248  and  _249
REMARK  106  A    between atoms: _252  and  _254
REMARK  107  A    between atoms: _254  and  _255
REMARK  108  A    between atoms: _257  and  _259
REMARK  109  A    between atoms: _259  and  _260
REMARK  110  A    between atoms: _259  and  _262
REMARK  111  A    between atoms: _262  and  _263
REMARK  112  A    between atoms: _263  and  _264
REMARK  113  A    between atoms: _264  and  _265
REMARK  114  A    between atoms: _274  and  _276
REMARK  115  A    between atoms: _276  and  _277
REMARK  116  A    between atoms: _276  and  _279
REMARK  117  A    between atoms: _279  and  _280
REMARK  118  A    between atoms: _280  and  _281
REMARK  119  A    between atoms: _281  and  _282
REMARK  120  A    between atoms: _291  and  _293
REMARK  121  A    between atoms: _293  and  _294
REMARK  122  A    between atoms: _293  and  _296
REMARK  123  A    between atoms: _296  and  _297
REMARK  124  A    between atoms: _300  and  _302
REMARK  125  A    between atoms: _302  and  _303
REMARK  126  A    between atoms: _302  and  _305
REMARK  127  A    between atoms: _305  and  _306
REMARK  128  A    between atoms: _309  and  _311
REMARK  129  A    between atoms: _311  and  _312
REMARK  130  A    between atoms: _311  and  _314
REMARK  131  A    between atoms: _314  and  _315
REMARK  132  A    between atoms: _318  and  _320
REMARK  133  A    between atoms: _320  and  _321
REMARK  134  A    between atoms: _320  and  _323
REMARK  135  A    between atoms: _323  and  _324
REMARK  136  A    between atoms: _327  and  _329
REMARK  137  A    between atoms: _329  and  _330
REMARK  138  A    between atoms: _329  and  _332
REMARK  139  A    between atoms: _332  and  _333
REMARK  140  A    between atoms: _336  and  _338
REMARK  141  A    between atoms: _338  and  _339
REMARK  142  A    between atoms: _341  and  _343
REMARK  143  A    between atoms: _343  and  _344
REMARK  144  A    between atoms: _347  and  _349
REMARK  145  A    between atoms: _349  and  _350
REMARK  146  A    between atoms: _349  and  _352
REMARK  147  A    between atoms: _352  and  _353
REMARK  148  A    between atoms: _356  and  _358
REMARK  149  A    between atoms: _358  and  _359
REMARK  150  A    between atoms: _358  and  _361
REMARK  151  A    between atoms: _361  and  _362
REMARK  152  A    between atoms: _365  and  _367
REMARK  153  A    between atoms: _367  and  _368
REMARK  154  A    between atoms: _367  and  _370
REMARK  155  A    between atoms: _370  and  _371
REMARK  156  A    between atoms: _374  and  _376
REMARK  157  A    between atoms: _376  and  _377
REMARK  158  A    between atoms: _376  and  _379
REMARK  159  A    between atoms: _382  and  _384
REMARK  160  A    between atoms: _384  and  _385
REMARK  161  A    between atoms: _384  and  _387
REMARK  162  A    between atoms: _387  and  _388
REMARK  163  A    between atoms: _388  and  _389
REMARK  164  A    between atoms: _389  and  _390
REMARK  165  A    between atoms: _390  and  _391
REMARK  166  A    between atoms: _395  and  _397
REMARK  167  A    between atoms: _397  and  _398
REMARK  168  A    between atoms: _397  and  _400
REMARK  169  A    between atoms: _400  and  _401
REMARK  170  A    between atoms: _401  and  _402
REMARK  171  A    between atoms: _404  and  _406
REMARK  172  A    between atoms: _406  and  _407
REMARK  173  A    between atoms: _406  and  _409
REMARK  174  A    between atoms: _409  and  _410
REMARK  175  A    between atoms: _413  and  _415
REMARK  176  A    between atoms: _415  and  _416
REMARK  177  A    between atoms: _418  and  _420
REMARK  178  A    between atoms: _420  and  _421
REMARK  179  A    between atoms: _423  and  _425
REMARK  180  A    between atoms: _425  and  _426
REMARK  181  A    between atoms: _425  and  _428
REMARK  182  A    between atoms: _428  and  _429
REMARK  183  A    between atoms: _432  and  _434
REMARK  184  A    between atoms: _434  and  _435
REMARK  185  A    between atoms: _437  and  _439
REMARK  186  A    between atoms: _439  and  _440
REMARK  187  A    between atoms: _442  and  _444
REMARK  188  A    between atoms: _444  and  _445
REMARK  189  A    between atoms: _444  and  _447
REMARK  190  A    between atoms: _447  and  _448
REMARK  191  A    between atoms: _454  and  _456
REMARK  192  A    between atoms: _456  and  _457
REMARK  193  A    between atoms: _456  and  _459
REMARK  194  A    between atoms: _459  and  _460
REMARK  195  A    between atoms: _463  and  _465
REMARK  196  A    between atoms: _465  and  _466
REMARK  197  A    between atoms: _465  and  _468
REMARK  198  A    between atoms: _471  and  _473
REMARK  199  A    between atoms: _473  and  _474
REMARK  200  A    between atoms: _473  and  _476
REMARK  201  A    between atoms: _476  and  _477
REMARK  202  A    between atoms: _480  and  _482
REMARK  203  A    between atoms: _482  and  _483
REMARK  204  A    between atoms: _482  and  _485
REMARK  205  A    between atoms: _485  and  _486
REMARK  206  A    between atoms: _490  and  _491
REMARK  207  A    between atoms: _496  and  _498
REMARK  208  A    between atoms: _498  and  _499
REMARK  209  A    between atoms: _498  and  _501
REMARK  210  A    between atoms: _504  and  _506
REMARK  211  A    between atoms: _506  and  _507
REMARK  212  A    between atoms: _506  and  _509
REMARK  213  A    between atoms: _509  and  _510
REMARK  214  A    between atoms: _515  and  _517
REMARK  215  A    between atoms: _517  and  _518
REMARK  216  A    between atoms: _517  and  _520
REMARK  217  A    between atoms: _520  and  _521
REMARK  218  A    between atoms: _524  and  _526
REMARK  219  A    between atoms: _526  and  _527
REMARK  220  A    between atoms: _526  and  _529
REMARK  221  A    between atoms: _529  and  _530
REMARK  222  A    between atoms: _533  and  _535
REMARK  223  A    between atoms: _535  and  _536
REMARK  224  A    between atoms: _538  and  _540
REMARK  225  A    between atoms: _540  and  _541
REMARK  226  A    between atoms: _540  and  _543
REMARK  227  A    between atoms: _543  and  _544
REMARK  228  A    between atoms: _544  and  _545
REMARK  229  A    between atoms: _545  and  _546
REMARK  230  A    between atoms: _555  and  _557
REMARK  231  A    between atoms: _557  and  _558
REMARK  232  A    between atoms: _557  and  _560
REMARK  233  A    between atoms: _560  and  _561
REMARK                            x       y       z     vdW  Elec       q    Type
REMARK                         _______ _______ _______ _____ _____    ______ ____
ROOT
ATOM      1  C   GLY A   5      16.984  28.208  19.936  0.00  0.00    +0.243 C 
ATOM      2  O   GLY A   5      18.138  27.837  20.166  0.00  0.00    -0.273 OA
ATOM      3  N   ALA A   6      16.617  28.748  18.775  0.00  0.00    -0.297 N 
ATOM      4  H   ALA A   6      15.634  29.066  18.654  0.00  0.00    +0.150 HD
ENDROOT
BRANCH   3   5
ATOM      5  CA  ALA A   6      17.556  28.906  17.667  0.00  0.00    +0.149 C 
ATOM      6  CB  ALA A   6      16.826  28.698  16.347  0.00  0.00    +0.031 C 
BRANCH   5   7
ATOM      7  C   ALA A   6      18.278  30.250  17.637  0.00  0.00    +0.241 C 
ATOM      8  N   ASP A   7      19.610  30.222  17.653  0.00  0.00    -0.297 N 
ATOM      9  H   ASP A   7      20.112  29.313  17.716  0.00  0.00    +0.150 HD
ATOM     10  O   ALA A   6      17.638  31.303  17.597  0.00  0.00    -0.273 OA
BRANCH   8  11
ATOM     11  CA  ASP A   7      20.364  31.474  17.581  0.00  0.00    +0.160 C 
BRANCH  11  12
ATOM     12  C   ASP A   7      20.205  32.048  16.171  0.00  0.00    +0.241 C 
ATOM     13  O   ASP A   7      20.143  33.264  15.984  0.00  0.00    -0.273 OA
ATOM     14  N   ASP A   8      20.131  31.157  15.184  0.00  0.00    -0.297 N 
ATOM     15  H   ASP A   8      20.140  30.143  15.415  0.00  0.00    +0.150 HD
BRANCH  14  16
ATOM     16  CA  ASP A   8      20.037  31.568  13.784  0.00  0.00    +0.160 C 
BRANCH  16  17
ATOM     17  C   ASP A   8      18.721  31.257  13.086  0.00  0.00    +0.241 C 
ATOM     18  O   ASP A   8      17.885  30.506  13.593  0.00  0.00    -0.273 OA
ATOM     19  N   THR A   9      18.556  31.859  11.909  0.00  0.00    -0.295 N 
ATOM     20  H   THR A   9      19.293  32.512  11.575  0.00  0.00    +0.150 HD
BRANCH  19  21
ATOM     21  CA  THR A   9      17.386  31.640  11.073  0.00  0.00    +0.176 C 
BRANCH  21  22
ATOM     22  C   THR A   9      17.864  30.697   9.973  0.00  0.00    +0.243 C 
ATOM     23  N   VAL A  10      17.199  29.557   9.837  0.00  0.00    -0.298 N 
ATOM     24  H   VAL A  10      16.376  29.367  10.443  0.00  0.00    +0.150 HD
ATOM     25  O   THR A   9      18.826  31.000   9.258  0.00  0.00    -0.273 OA
BRANCH  23  26
ATOM     26  CA  VAL A  10      17.609  28.565   8.846  0.00  0.00    +0.137 C 
BRANCH  26  27
ATOM     27  CB  VAL A  10      18.121  27.278   9.540  0.00  0.00    +0.026 C 
ATOM     28  CG2 VAL A  10      18.936  27.650  10.789  0.00  0.00    +0.002 C 
ATOM     29  CG1 VAL A  10      18.950  26.444   8.562  0.00  0.00    +0.002 C 
ENDBRANCH  26  27
BRANCH  26  30
ATOM     30  C   VAL A  10      16.467  28.191   7.916  0.00  0.00    +0.227 C 
ATOM     31  O   VAL A  10      15.389  27.790   8.367  0.00  0.00    -0.286 OA
ENDBRANCH  26  30
ENDBRANCH  23  26
ENDBRANCH  21  22
BRANCH  21  32
ATOM     32  CB  THR A   9      16.891  32.956  10.455  0.00  0.00    +0.137 C 
ATOM     33  CG2 THR A   9      15.757  32.699   9.468  0.00  0.00    +0.034 C 
BRANCH  32  34
ATOM     34  OG1 THR A   9      16.416  33.810  11.502  0.00  0.00    -0.382 OA
ATOM     35  HG1 THR A   9      17.153  33.994  12.136  0.00  0.00    +0.210 HD
ENDBRANCH  32  34
ENDBRANCH  21  32
ENDBRANCH  19  21
ENDBRANCH  16  17
BRANCH  16  36
ATOM     36  CB  ASP A   8      21.167  30.907  12.984  0.00  0.00    +0.143 C 
BRANCH  36  37
ATOM     37  CG  ASP A   8      22.505  30.992  13.689  0.00  0.00    +0.367 C 
ATOM     38  OD2 ASP A   8      22.927  32.120  14.007  0.00  0.00    -0.246 OA
ATOM     39  OD1 ASP A   8      23.133  29.938  13.926  0.00  0.00    -0.246 OA
ENDBRANCH  36  37
ENDBRANCH  16  36
ENDBRANCH  14  16
ENDBRANCH  11  12
BRANCH  11  40
ATOM     40  CB  ASP A   7      21.869  31.262  17.817  0.00  0.00    +0.143 C 
BRANCH  40  41
ATOM     41  CG  ASP A   7      22.190  30.709  19.192  0.00  0.00    +0.367 C 
ATOM     42  OD2 ASP A   7      21.389  30.914  20.133  0.00  0.00    -0.246 OA
ATOM     43  OD1 ASP A   7      23.267  30.087  19.327  0.00  0.00    -0.246 OA
ENDBRANCH  40  41
ENDBRANCH  11  40
ENDBRANCH   8  11
ENDBRANCH   5   7
ENDBRANCH   3   5
BRANCH   1  44
ATOM     44  CA  GLY A   5      15.901  28.082  21.000  0.00  0.00    +0.176 C 
BRANCH  44  47
ATOM     45  C   THR A   4      14.620  30.139  21.023  0.00  0.00    +0.243 C 
ATOM     46  O   THR A   4      15.508  30.738  21.633  0.00  0.00    -0.273 OA
ATOM     47  N   GLY A   5      14.712  28.855  20.682  0.00  0.00    -0.295 N 
ATOM     48  H   GLY A   5      13.922  28.399  20.181  0.00  0.00    +0.150 HD
BRANCH  45  49
ATOM     49  CA  THR A   4      13.327  30.863  20.641  0.00  0.00    +0.176 C 
BRANCH  49  51
ATOM     50  C   ASP A   3      12.918  30.019  18.391  0.00  0.00    +0.241 C 
ATOM     51  N   THR A   4      12.521  30.138  19.657  0.00  0.00    -0.295 N 
ATOM     52  H   THR A   4      11.621  29.708  19.952  0.00  0.00    +0.150 HD
ATOM     53  O   ASP A   3      13.992  30.473  17.987  0.00  0.00    -0.273 OA
BRANCH  50  54
ATOM     54  CA  ASP A   3      11.985  29.247  17.450  0.00  0.00    +0.160 C 
BRANCH  54  57
ATOM     55  C   LEU A   2       9.812  29.978  16.597  0.00  0.00    +0.241 C 
ATOM     56  O   LEU A   2       9.186  29.359  17.462  0.00  0.00    -0.273 OA
ATOM     57  N   ASP A   3      11.141  30.033  16.553  0.00  0.00    -0.297 N 
ATOM     58  H   ASP A   3      11.595  30.657  15.856  0.00  0.00    +0.150 HD
BRANCH  55  59
ATOM     59  CA  LEU A   2       9.080  30.751  15.507  0.00  0.00    +0.149 C 
BRANCH  59  61
ATOM     60  C   LEU A   1       9.347  29.063  13.758  0.00  0.00    +0.238 C 
ATOM     61  N   LEU A   2       8.568  29.688  14.638  0.00  0.00    -0.297 N 
ATOM     62  H   LEU A   2       7.567  29.414  14.711  0.00  0.00    +0.150 HD
ATOM     63  O   LEU A   1      10.531  29.360  13.589  0.00  0.00    -0.274 OA
BRANCH  60  64
ATOM     64  CA  LEU A   1       8.699  27.941  12.934  0.00  0.00    +0.145 C 
BRANCH  64  65
ATOM     65  N   LEU A   1       8.881  28.102  11.491  0.00  0.00    -0.238 NA
ATOM     66  H   LEU A   1       9.801  27.848  11.078  0.00  0.00    +0.142 HD
ENDBRANCH  64  65
BRANCH  64  67
ATOM     67  CB  LEU A   1       9.294  26.591  13.340  0.00  0.00    +0.026 C 
BRANCH  67  68
ATOM     68  CG  LEU A   1       9.283  26.127  14.796  0.00  0.00    +0.002 C 
ATOM     69  CD2 LEU A   1       7.853  25.857  15.248  0.00  0.00    +0.000 C 
ATOM     70  CD1 LEU A   1      10.129  24.862  14.911  0.00  0.00    +0.000 C 
ENDBRANCH  67  68
ENDBRANCH  64  67
ENDBRANCH  60  64
ENDBRANCH  59  61
BRANCH  59  71
ATOM     71  CB  LEU A   2       7.918  31.562  16.092  0.00  0.00    +0.029 C 
BRANCH  71  72
ATOM     72  CG  LEU A   2       6.998  32.191  15.041  0.00  0.00    +0.002 C 
ATOM     73  CD2 LEU A   2       5.852  32.916  15.731  0.00  0.00    +0.000 C 
ATOM     74  CD1 LEU A   2       7.796  33.152  14.156  0.00  0.00    +0.000 C 
ENDBRANCH  71  72
ENDBRANCH  59  71
ENDBRANCH  55  59
ENDBRANCH  54  57
BRANCH  54  75
ATOM     75  CB  ASP A   3      12.781  28.300  16.551  0.00  0.00    +0.143 C 
BRANCH  75  76
ATOM     76  CG  ASP A   3      13.643  27.329  17.313  0.00  0.00    +0.367 C 
ATOM     77  OD2 ASP A   3      13.672  27.368  18.563  0.00  0.00    -0.246 OA
ATOM     78  OD1 ASP A   3      14.297  26.520  16.622  0.00  0.00    -0.246 OA
ENDBRANCH  75  76
ENDBRANCH  54  75
ENDBRANCH  50  54
ENDBRANCH  49  51
BRANCH  49  79
ATOM     79  CB  THR A   4      12.536  31.125  21.940  0.00  0.00    +0.137 C 
ATOM     80  CG2 THR A   4      11.361  32.068  21.678  0.00  0.00    +0.034 C 
BRANCH  79  81
ATOM     81  OG1 THR A   4      12.050  29.881  22.456  0.00  0.00    -0.382 OA
ATOM     82  HG1 THR A   4      12.815  29.283  22.648  0.00  0.00    +0.210 HD
ENDBRANCH  79  81
ENDBRANCH  49  79
ENDBRANCH  45  49
ENDBRANCH  44  47
ENDBRANCH   1  44
TORSDOF 35
REMARK  Name = ../refined-set-2016/1mrw/1mrw_pocket.pdb
REMARK  233 active torsions:
REMARK  status: ('A' for Active; 'I' for Inactive)
REMARK    1  A    between atoms: _1  and  _3
REMARK    2  A    between atoms: _3  and  _4
REMARK    3  A    between atoms: _3  and  _6
REMARK    4  A    between atoms: _6  and  _7
REMARK    5  A    between atoms: _7  and  _8
REMARK    6  A    between atoms: _8  and  _9
REMARK    7  A    between atoms: _18  and  _20
REMARK    8  A    between atoms: _20  and  _21
REMARK    9  A    between atoms: _20  and  _23
REMARK   10  A    between atoms: _23  and  _24
REMARK   11  A    between atoms: _27  and  _29
REMARK   12  A    between atoms: _29  and  _30
REMARK   13  A    between atoms: _29  and  _32
REMARK   14  A    between atoms: _32  and  _33
REMARK   15  A    between atoms: _36  and  _38
REMARK   16  A    between atoms: _38  and  _39
REMARK   17  A    between atoms: _38  and  _41
REMARK   18  A    between atoms: _41  and  _42
REMARK   19  A    between atoms: _45  and  _47
REMARK   20  A    between atoms: _47  and  _48
REMARK   21  A    between atoms: _47  and  _50
REMARK   22  A    between atoms: _50  and  _51
REMARK   23  A    between atoms: _54  and  _56
REMARK   24  A    between atoms: _56  and  _57
REMARK   25  A    between atoms: _56  and  _59
REMARK   26  A    between atoms: _59  and  _60
REMARK   27  A    between atoms: _63  and  _65
REMARK   28  A    between atoms: _65  and  _66
REMARK   29  A    between atoms: _68  and  _70
REMARK   30  A    between atoms: _70  and  _71
REMARK   31  A    between atoms: _74  and  _76
REMARK   32  A    between atoms: _76  and  _77
REMARK   33  A    between atoms: _76  and  _79
REMARK   34  A    between atoms: _79  and  _80
REMARK   35  A    between atoms: _83  and  _85
REMARK   36  A    between atoms: _85  and  _86
REMARK   37  A    between atoms: _85  and  _88
REMARK   38  A    between atoms: _88  and  _89
REMARK   39  A    between atoms: _92  and  _94
REMARK   40  A    between atoms: _94  and  _95
REMARK   41  A    between atoms: _94  and  _97
REMARK   42  A    between atoms: _97  and  _98
REMARK   43  A    between atoms: _101  and  _103
REMARK   44  A    between atoms: _103  and  _104
REMARK   45  A    between atoms: _103  and  _106
REMARK   46  A    between atoms: _109  and  _111
REMARK   47  A    between atoms: _111  and  _112
REMARK   48  A    between atoms: _111  and  _114
REMARK   49  A    between atoms: _114  and  _115
REMARK   50  A    between atoms: _115  and  _116
REMARK   51  A    between atoms: _116  and  _117
REMARK   52  A    between atoms: _117  and  _118
REMARK   53  A    between atoms: _122  and  _124
REMARK   54  A    between atoms: _124  and  _125
REMARK   55  A    between atoms: _124  and  _127
REMARK   56  A    between atoms: _127  and  _128
REMARK   57  A    between atoms: _128  and  _129
REMARK   58  A    between atoms: _131  and  _133
REMARK   59  A    between atoms: _133  and  _134
REMARK   60  A    between atoms: _133  and  _136
REMARK   61  A    between atoms: _136  and  _137
REMARK   62  A    between atoms: _140  and  _142
REMARK   63  A    between atoms: _142  and  _143
REMARK   64  A    between atoms: _145  and  _147
REMARK   65  A    between atoms: _147  and  _148
REMARK   66  A    between atoms: _150  and  _152
REMARK   67  A    between atoms: _152  and  _153
REMARK   68  A    between atoms: _152  and  _155
REMARK   69  A    between atoms: _155  and  _156
REMARK   70  A    between atoms: _159  and  _161
REMARK   71  A    between atoms: _161  and  _162
REMARK   72  A    between atoms: _164  and  _166
REMARK   73  A    between atoms: _166  and  _167
REMARK   74  A    between atoms: _169  and  _171
REMARK   75  A    between atoms: _171  and  _172
REMARK   76  A    between atoms: _171  and  _174
REMARK   77  A    between atoms: _174  and  _175
REMARK   78  A    between atoms: _181  and  _183
REMARK   79  A    between atoms: _183  and  _184
REMARK   80  A    between atoms: _183  and  _186
REMARK   81  A    between atoms: _186  and  _187
REMARK   82  A    between atoms: _190  and  _192
REMARK   83  A    between atoms: _192  and  _193
REMARK   84  A    between atoms: _192  and  _195
REMARK   85  A    between atoms: _195  and  _196
REMARK   86  A    between atoms: _199  and  _201
REMARK   87  A    between atoms: _201  and  _202
REMARK   88  A    between atoms: _201  and  _204
REMARK   89  A    between atoms: _204  and  _205
REMARK   90  A    between atoms: _209  and  _210
REMARK   91  A    between atoms: _215  and  _217
REMARK   92  A    between atoms: _217  and  _218
REMARK   93  A    between atoms: _217  and  _220
REMARK   94  A    between atoms: _223  and  _225
REMARK   95  A    between atoms: _225  and  _226
REMARK   96  A    between atoms: _225  and  _228
REMARK   97  A    between atoms: _228  and  _229
REMARK   98  A    between atoms: _234  and  _236
REMARK   99  A    between atoms: _236  and  _237
REMARK  100  A    between atoms: _236  and  _239
REMARK  101  A    between atoms: _239  and  _240
REMARK  102  A    between atoms: _243  and  _245
REMARK  103  A    between atoms: _245  and  _246
REMARK  104  A    between atoms: _245  and  _248
REMARK  105  A    between atoms: _248  and  _249
REMARK  106  A    between atoms: _252  and  _254
REMARK  107  A    between atoms: _254  and  _255
REMARK  108  A    between atoms: _257  and  _259
REMARK  109  A    between atoms: _259  and  _260
REMARK  110  A    between atoms: _259  and  _262
REMARK  111  A    between atoms: _262  and  _263
REMARK  112  A    between atoms: _263  and  _264
REMARK  113  A    between atoms: _264  and  _265
REMARK  114  A    between atoms: _274  and  _276
REMARK  115  A    between atoms: _276  and  _277
REMARK  116  A    between atoms: _276  and  _279
REMARK  117  A    between atoms: _279  and  _280
REMARK  118  A    between atoms: _280  and  _281
REMARK  119  A    between atoms: _281  and  _282
REMARK  120  A    between atoms: _291  and  _293
REMARK  121  A    between atoms: _293  and  _294
REMARK  122  A    between atoms: _293  and  _296
REMARK  123  A    between atoms: _296  and  _297
REMARK  124  A    between atoms: _300  and  _302
REMARK  125  A    between atoms: _302  and  _303
REMARK  126  A    between atoms: _302  and  _305
REMARK  127  A    between atoms: _305  and  _306
REMARK  128  A    between atoms: _309  and  _311
REMARK  129  A    between atoms: _311  and  _312
REMARK  130  A    between atoms: _311  and  _314
REMARK  131  A    between atoms: _314  and  _315
REMARK  132  A    between atoms: _318  and  _320
REMARK  133  A    between atoms: _320  and  _321
REMARK  134  A    between atoms: _320  and  _323
REMARK  135  A    between atoms: _323  and  _324
REMARK  136  A    between atoms: _327  and  _329
REMARK  137  A    between atoms: _329  and  _330
REMARK  138  A    between atoms: _329  and  _332
REMARK  139  A    between atoms: _332  and  _333
REMARK  140  A    between atoms: _336  and  _338
REMARK  141  A    between atoms: _338  and  _339
REMARK  142  A    between atoms: _341  and  _343
REMARK  143  A    between atoms: _343  and  _344
REMARK  144  A    between atoms: _347  and  _349
REMARK  145  A    between atoms: _349  and  _350
REMARK  146  A    between atoms: _349  and  _352
REMARK  147  A    between atoms: _352  and  _353
REMARK  148  A    between atoms: _356  and  _358
REMARK  149  A    between atoms: _358  and  _359
REMARK  150  A    between atoms: _358  and  _361
REMARK  151  A    between atoms: _361  and  _362
REMARK  152  A    between atoms: _365  and  _367
REMARK  153  A    between atoms: _367  and  _368
REMARK  154  A    between atoms: _367  and  _370
REMARK  155  A    between atoms: _370  and  _371
REMARK  156  A    between atoms: _374  and  _376
REMARK  157  A    between atoms: _376  and  _377
REMARK  158  A    between atoms: _376  and  _379
REMARK  159  A    between atoms: _382  and  _384
REMARK  160  A    between atoms: _384  and  _385
REMARK  161  A    between atoms: _384  and  _387
REMARK  162  A    between atoms: _387  and  _388
REMARK  163  A    between atoms: _388  and  _389
REMARK  164  A    between atoms: _389  and  _390
REMARK  165  A    between atoms: _390  and  _391
REMARK  166  A    between atoms: _395  and  _397
REMARK  167  A    between atoms: _397  and  _398
REMARK  168  A    between atoms: _397  and  _400
REMARK  169  A    between atoms: _400  and  _401
REMARK  170  A    between atoms: _401  and  _402
REMARK  171  A    between atoms: _404  and  _406
REMARK  172  A    between atoms: _406  and  _407
REMARK  173  A    between atoms: _406  and  _409
REMARK  174  A    between atoms: _409  and  _410
REMARK  175  A    between atoms: _413  and  _415
REMARK  176  A    between atoms: _415  and  _416
REMARK  177  A    between atoms: _418  and  _420
REMARK  178  A    between atoms: _420  and  _421
REMARK  179  A    between atoms: _423  and  _425
REMARK  180  A    between atoms: _425  and  _426
REMARK  181  A    between atoms: _425  and  _428
REMARK  182  A    between atoms: _428  and  _429
REMARK  183  A    between atoms: _432  and  _434
REMARK  184  A    between atoms: _434  and  _435
REMARK  185  A    between atoms: _437  and  _439
REMARK  186  A    between atoms: _439  and  _440
REMARK  187  A    between atoms: _442  and  _444
REMARK  188  A    between atoms: _444  and  _445
REMARK  189  A    between atoms: _444  and  _447
REMARK  190  A    between atoms: _447  and  _448
REMARK  191  A    between atoms: _454  and  _456
REMARK  192  A    between atoms: _456  and  _457
REMARK  193  A    between atoms: _456  and  _459
REMARK  194  A    between atoms: _459  and  _460
REMARK  195  A    between atoms: _463  and  _465
REMARK  196  A    between atoms: _465  and  _466
REMARK  197  A    between atoms: _465  and  _468
REMARK  198  A    between atoms: _471  and  _473
REMARK  199  A    between atoms: _473  and  _474
REMARK  200  A    between atoms: _473  and  _476
REMARK  201  A    between atoms: _476  and  _477
REMARK  202  A    between atoms: _480  and  _482
REMARK  203  A    between atoms: _482  and  _483
REMARK  204  A    between atoms: _482  and  _485
REMARK  205  A    between atoms: _485  and  _486
REMARK  206  A    between atoms: _490  and  _491
REMARK  207  A    between atoms: _496  and  _498
REMARK  208  A    between atoms: _498  and  _499
REMARK  209  A    between atoms: _498  and  _501
REMARK  210  A    between atoms: _504  and  _506
REMARK  211  A    between atoms: _506  and  _507
REMARK  212  A    between atoms: _506  and  _509
REMARK  213  A    between atoms: _509  and  _510
REMARK  214  A    between atoms: _515  and  _517
REMARK  215  A    between atoms: _517  and  _518
REMARK  216  A    between atoms: _517  and  _520
REMARK  217  A    between atoms: _520  and  _521
REMARK  218  A    between atoms: _524  and  _526
REMARK  219  A    between atoms: _526  and  _527
REMARK  220  A    between atoms: _526  and  _529
REMARK  221  A    between atoms: _529  and  _530
REMARK  222  A    between atoms: _533  and  _535
REMARK  223  A    between atoms: _535  and  _536
REMARK  224  A    between atoms: _538  and  _540
REMARK  225  A    between atoms: _540  and  _541
REMARK  226  A    between atoms: _540  and  _543
REMARK  227  A    between atoms: _543  and  _544
REMARK  228  A    between atoms: _544  and  _545
REMARK  229  A    between atoms: _545  and  _546
REMARK  230  A    between atoms: _555  and  _557
REMARK  231  A    between atoms: _557  and  _558
REMARK  232  A    between atoms: _557  and  _560
REMARK  233  A    between atoms: _560  and  _561
REMARK                            x       y       z     vdW  Elec       q    Type
REMARK                         _______ _______ _______ _____ _____    ______ ____
ROOT
ATOM      1  C   GLY A   5      21.550  19.350  17.956  0.00  0.00    +0.243 C 
ATOM      2  N   ILE A   6      20.291  19.072  18.276  0.00  0.00    -0.297 N 
ATOM      3  H   ILE A   6      19.586  19.836  18.290  0.00  0.00    +0.150 HD
ATOM      4  O   GLY A   5      22.424  18.490  17.886  0.00  0.00    -0.273 OA
ENDROOT
BRANCH   2   5
ATOM      5  CA  ILE A   6      19.883  17.711  18.608  0.00  0.00    +0.149 C 
BRANCH   5   6
ATOM      6  C   ILE A   6      20.419  16.608  17.695  0.00  0.00    +0.241 C 
ATOM      7  O   ILE A   6      20.992  15.632  18.173  0.00  0.00    -0.273 OA
ATOM      8  N   GLY A   7      20.249  16.739  16.388  0.00  0.00    -0.295 N 
ATOM      9  H   GLY A   7      19.776  17.576  15.991  0.00  0.00    +0.150 HD
BRANCH   8  10
ATOM     10  CA  GLY A   7      20.743  15.677  15.522  0.00  0.00    +0.176 C 
BRANCH  10  11
ATOM     11  C   GLY A   7      22.209  15.758  15.120  0.00  0.00    +0.243 C 
ATOM     12  N   GLY A   8      22.916  16.767  15.614  0.00  0.00    -0.295 N 
ATOM     13  H   GLY A   8      22.470  17.442  16.268  0.00  0.00    +0.150 HD
ATOM     14  O   GLY A   7      22.701  14.912  14.375  0.00  0.00    -0.273 OA
BRANCH  12  15
ATOM     15  CA  GLY A   8      24.311  16.930  15.243  0.00  0.00    +0.176 C 
BRANCH  15  16
ATOM     16  C   GLY A   8      24.441  18.195  14.414  0.00  0.00    +0.243 C 
ATOM     17  O   GLY A   8      23.655  19.125  14.603  0.00  0.00    -0.273 OA
ATOM     18  N   PHE A   9      25.400  18.229  13.489  0.00  0.00    -0.297 N 
ATOM     19  H   PHE A   9      26.009  17.396  13.360  0.00  0.00    +0.150 HD
BRANCH  18  20
ATOM     20  CA  PHE A   9      25.619  19.408  12.650  0.00  0.00    +0.153 C 
BRANCH  20  21
ATOM     21  C   PHE A   9      25.295  19.233  11.168  0.00  0.00    +0.241 C 
ATOM     22  O   PHE A   9      25.351  18.130  10.635  0.00  0.00    -0.273 OA
ATOM     23  N   ILE A  10      24.959  20.343  10.516  0.00  0.00    -0.298 N 
ATOM     24  H   ILE A  10      24.873  21.230  11.052  0.00  0.00    +0.150 HD
BRANCH  23  25
ATOM     25  CA  ILE A  10      24.705  20.367   9.075  0.00  0.00    +0.137 C 
BRANCH  25  26
ATOM     26  C   ILE A  10      25.441  21.594   8.520  0.00  0.00    +0.227 C 
ATOM     27  O   ILE A  10      25.666  22.577   9.240  0.00  0.00    -0.286 OA
ENDBRANCH  25  26
BRANCH  25  28
ATOM     28  CB  ILE A  10      23.197  20.499   8.707  0.00  0.00    +0.026 C 
ATOM     29  CG2 ILE A  10      22.434  19.264   9.161  0.00  0.00    +0.002 C 
BRANCH  28  30
ATOM     30  CG1 ILE A  10      22.610  21.779   9.311  0.00  0.00    +0.002 C 
ATOM     31  CD1 ILE A  10      21.228  22.123   8.787  0.00  0.00    +0.000 C 
ENDBRANCH  28  30
ENDBRANCH  25  28
ENDBRANCH  23  25
ENDBRANCH  20  21
BRANCH  20  32
ATOM     32  CB  PHE A   9      27.085  19.856  12.725  0.00  0.00    +0.055 C 
BRANCH  32  33
ATOM     33  CG  PHE A   9      27.495  20.401  14.054  0.00  0.00    -0.020 A 
ATOM     34  CD2 PHE A   9      27.564  19.576  15.169  0.00  0.00    -0.004 A 
ATOM     35  CE2 PHE A   9      27.957  20.081  16.397  0.00  0.00    -0.000 A 
ATOM     36  CZ  PHE A   9      28.286  21.428  16.523  0.00  0.00    -0.000 A 
ATOM     37  CE1 PHE A   9      28.222  22.262  15.418  0.00  0.00    -0.000 A 
ATOM     38  CD1 PHE A   9      27.826  21.745  14.189  0.00  0.00    -0.004 A 
ENDBRANCH  32  33
ENDBRANCH  20  32
ENDBRANCH  18  20
ENDBRANCH  15  16
ENDBRANCH  12  15
ENDBRANCH  10  11
ENDBRANCH   8  10
ENDBRANCH   5   6
BRANCH   5  39
ATOM     39  CB  ILE A   6      18.348  17.599  18.682  0.00  0.00    +0.027 C 
ATOM     40  CG2 ILE A   6      17.917  16.136  18.635  0.00  0.00    +0.002 C 
BRANCH  39  41
ATOM     41  CG1 ILE A   6      17.856  18.254  19.975  0.00  0.00    +0.002 C 
ATOM     42  CD1 ILE A   6      18.385  17.591  21.241  0.00  0.00    +0.000 C 
ENDBRANCH  39  41
ENDBRANCH   5  39
ENDBRANCH   2   5
BRANCH   1  43
ATOM     43  CA  GLY A   5      21.877  20.796  17.651  0.00  0.00    +0.176 C 
BRANCH  43  46
ATOM     44  C   GLY A   4      23.506  21.997  16.327  0.00  0.00    +0.243 C 
ATOM     45  O   GLY A   4      23.364  23.017  16.985  0.00  0.00    -0.273 OA
ATOM     46  N   GLY A   5      22.843  20.874  16.572  0.00  0.00    -0.295 N 
ATOM     47  H   GLY A   5      23.019  20.037  15.981  0.00  0.00    +0.150 HD
BRANCH  44  48
ATOM     48  CA  GLY A   4      24.482  21.942  15.174  0.00  0.00    +0.176 C 
BRANCH  48  50
ATOM     49  C   ILE A   3      25.000  23.326  13.297  0.00  0.00    +0.241 C 
ATOM     50  N   GLY A   4      24.850  23.225  14.611  0.00  0.00    -0.295 N 
ATOM     51  H   GLY A   4      24.994  24.052  15.226  0.00  0.00    +0.150 HD
ATOM     52  O   ILE A   3      24.831  22.369  12.546  0.00  0.00    -0.273 OA
BRANCH  49  53
ATOM     53  CA  ILE A   3      25.415  24.685  12.745  0.00  0.00    +0.149 C 
BRANCH  53  56
ATOM     54  C   MET A   2      27.460  25.025  11.505  0.00  0.00    +0.241 C 
ATOM     55  O   MET A   2      27.881  25.806  12.358  0.00  0.00    -0.273 OA
ATOM     56  N   ILE A   3      26.266  24.451  11.588  0.00  0.00    -0.297 N 
ATOM     57  H   ILE A   3      25.937  23.830  10.821  0.00  0.00    +0.150 HD
BRANCH  54  58
ATOM     58  CA  MET A   2      28.301  24.685  10.282  0.00  0.00    +0.149 C 
BRANCH  58  60
ATOM     59  C   LYS A   1      28.356  26.346   8.506  0.00  0.00    +0.238 C 
ATOM     60  N   MET A   2      28.790  25.921   9.687  0.00  0.00    -0.297 N 
ATOM     61  H   MET A   2      29.497  26.485  10.200  0.00  0.00    +0.150 HD
ATOM     62  O   LYS A   1      27.551  25.719   7.820  0.00  0.00    -0.274 OA
BRANCH  59  63
ATOM     63  CA  LYS A   1      28.936  27.663   8.012  0.00  0.00    +0.145 C 
BRANCH  63  64
ATOM     64  N   LYS A   1      29.047  27.620   6.559  0.00  0.00    -0.238 NA
ATOM     65  H   LYS A   1      28.475  26.930   6.031  0.00  0.00    +0.142 HD
ENDBRANCH  63  64
BRANCH  63  66
ATOM     66  CB  LYS A   1      28.037  28.823   8.450  0.00  0.00    +0.026 C 
BRANCH  66  67
ATOM     67  CG  LYS A   1      28.003  29.059   9.956  0.00  0.00    -0.000 C 
BRANCH  67  68
ATOM     68  CD  LYS A   1      27.410  30.434  10.254  0.00  0.00    -0.024 C 
BRANCH  68  69
ATOM     69  CE  LYS A   1      27.574  30.836  11.715  0.00  0.00    -0.086 C 
BRANCH  69  70
ATOM     70  NZ  LYS A   1      26.514  30.252  12.571  0.00  0.00    +0.380 N 
ATOM     71  HZ1 LYS A   1      26.662  30.550  13.556  0.00  0.00    -0.089 HD
ATOM     72  HZ2 LYS A   1      26.554  29.214  12.511  0.00  0.00    -0.089 HD
ATOM     73  HZ3 LYS A   1      25.584  30.583  12.244  0.00  0.00    -0.089 HD
ENDBRANCH  69  70
ENDBRANCH  68  69
ENDBRANCH  67  68
ENDBRANCH  66  67
ENDBRANCH  63  66
ENDBRANCH  59  63
ENDBRANCH  58  60
BRANCH  58  74
ATOM     74  CB  MET A   2      29.469  23.796  10.723  0.00  0.00    +0.041 C 
BRANCH  74  75
ATOM     75  CG  MET A   2      30.266  23.164   9.597  0.00  0.00    +0.060 C 
BRANCH  75  76
ATOM     76  SD  MET A   2      29.336  21.876   8.755  0.00  0.00    -0.139 S 
ATOM     77  CE  MET A   2      29.728  20.440   9.796  0.00  0.00    +0.069 C 
ENDBRANCH  75  76
ENDBRANCH  74  75
ENDBRANCH  58  74
ENDBRANCH  54  58
ENDBRANCH  53  56
BRANCH  53  78
ATOM     78  CB  ILE A   3      24.176  25.527  12.381  0.00  0.00    +0.027 C 
ATOM     79  CG2 ILE A   3      24.618  26.923  11.944  0.00  0.00    +0.002 C 
BRANCH  78  80
ATOM     80  CG1 ILE A   3      23.370  24.845  11.275  0.00  0.00    +0.002 C 
ATOM     81  CD1 ILE A   3      22.032  25.520  11.000  0.00  0.00    +0.000 C 
ENDBRANCH  78  80
ENDBRANCH  53  78
ENDBRANCH  49  53
ENDBRANCH  48  50
ENDBRANCH  44  48
ENDBRANCH  43  46
ENDBRANCH   1  43
TORSDOF 36
REMARK  Name = ../refined-set-2016/1mrw/1mrw_pocket.pdb
REMARK  233 active torsions:
REMARK  status: ('A' for Active; 'I' for Inactive)
REMARK    1  A    between atoms: _1  and  _3
REMARK    2  A    between atoms: _3  and  _4
REMARK    3  A    between atoms: _3  and  _6
REMARK    4  A    between atoms: _6  and  _7
REMARK    5  A    between atoms: _7  and  _8
REMARK    6  A    between atoms: _8  and  _9
REMARK    7  A    between atoms: _18  and  _20
REMARK    8  A    between atoms: _20  and  _21
REMARK    9  A    between atoms: _20  and  _23
REMARK   10  A    between atoms: _23  and  _24
REMARK   11  A    between atoms: _27  and  _29
REMARK   12  A    between atoms: _29  and  _30
REMARK   13  A    between atoms: _29  and  _32
REMARK   14  A    between atoms: _32  and  _33
REMARK   15  A    between atoms: _36  and  _38
REMARK   16  A    between atoms: _38  and  _39
REMARK   17  A    between atoms: _38  and  _41
REMARK   18  A    between atoms: _41  and  _42
REMARK   19  A    between atoms: _45  and  _47
REMARK   20  A    between atoms: _47  and  _48
REMARK   21  A    between atoms: _47  and  _50
REMARK   22  A    between atoms: _50  and  _51
REMARK   23  A    between atoms: _54  and  _56
REMARK   24  A    between atoms: _56  and  _57
REMARK   25  A    between atoms: _56  and  _59
REMARK   26  A    between atoms: _59  and  _60
REMARK   27  A    between atoms: _63  and  _65
REMARK   28  A    between atoms: _65  and  _66
REMARK   29  A    between atoms: _68  and  _70
REMARK   30  A    between atoms: _70  and  _71
REMARK   31  A    between atoms: _74  and  _76
REMARK   32  A    between atoms: _76  and  _77
REMARK   33  A    between atoms: _76  and  _79
REMARK   34  A    between atoms: _79  and  _80
REMARK   35  A    between atoms: _83  and  _85
REMARK   36  A    between atoms: _85  and  _86
REMARK   37  A    between atoms: _85  and  _88
REMARK   38  A    between atoms: _88  and  _89
REMARK   39  A    between atoms: _92  and  _94
REMARK   40  A    between atoms: _94  and  _95
REMARK   41  A    between atoms: _94  and  _97
REMARK   42  A    between atoms: _97  and  _98
REMARK   43  A    between atoms: _101  and  _103
REMARK   44  A    between atoms: _103  and  _104
REMARK   45  A    between atoms: _103  and  _106
REMARK   46  A    between atoms: _109  and  _111
REMARK   47  A    between atoms: _111  and  _112
REMARK   48  A    between atoms: _111  and  _114
REMARK   49  A    between atoms: _114  and  _115
REMARK   50  A    between atoms: _115  and  _116
REMARK   51  A    between atoms: _116  and  _117
REMARK   52  A    between atoms: _117  and  _118
REMARK   53  A    between atoms: _122  and  _124
REMARK   54  A    between atoms: _124  and  _125
REMARK   55  A    between atoms: _124  and  _127
REMARK   56  A    between atoms: _127  and  _128
REMARK   57  A    between atoms: _128  and  _129
REMARK   58  A    between atoms: _131  and  _133
REMARK   59  A    between atoms: _133  and  _134
REMARK   60  A    between atoms: _133  and  _136
REMARK   61  A    between atoms: _136  and  _137
REMARK   62  A    between atoms: _140  and  _142
REMARK   63  A    between atoms: _142  and  _143
REMARK   64  A    between atoms: _145  and  _147
REMARK   65  A    between atoms: _147  and  _148
REMARK   66  A    between atoms: _150  and  _152
REMARK   67  A    between atoms: _152  and  _153
REMARK   68  A    between atoms: _152  and  _155
REMARK   69  A    between atoms: _155  and  _156
REMARK   70  A    between atoms: _159  and  _161
REMARK   71  A    between atoms: _161  and  _162
REMARK   72  A    between atoms: _164  and  _166
REMARK   73  A    between atoms: _166  and  _167
REMARK   74  A    between atoms: _169  and  _171
REMARK   75  A    between atoms: _171  and  _172
REMARK   76  A    between atoms: _171  and  _174
REMARK   77  A    between atoms: _174  and  _175
REMARK   78  A    between atoms: _181  and  _183
REMARK   79  A    between atoms: _183  and  _184
REMARK   80  A    between atoms: _183  and  _186
REMARK   81  A    between atoms: _186  and  _187
REMARK   82  A    between atoms: _190  and  _192
REMARK   83  A    between atoms: _192  and  _193
REMARK   84  A    between atoms: _192  and  _195
REMARK   85  A    between atoms: _195  and  _196
REMARK   86  A    between atoms: _199  and  _201
REMARK   87  A    between atoms: _201  and  _202
REMARK   88  A    between atoms: _201  and  _204
REMARK   89  A    between atoms: _204  and  _205
REMARK   90  A    between atoms: _209  and  _210
REMARK   91  A    between atoms: _215  and  _217
REMARK   92  A    between atoms: _217  and  _218
REMARK   93  A    between atoms: _217  and  _220
REMARK   94  A    between atoms: _223  and  _225
REMARK   95  A    between atoms: _225  and  _226
REMARK   96  A    between atoms: _225  and  _228
REMARK   97  A    between atoms: _228  and  _229
REMARK   98  A    between atoms: _234  and  _236
REMARK   99  A    between atoms: _236  and  _237
REMARK  100  A    between atoms: _236  and  _239
REMARK  101  A    between atoms: _239  and  _240
REMARK  102  A    between atoms: _243  and  _245
REMARK  103  A    between atoms: _245  and  _246
REMARK  104  A    between atoms: _245  and  _248
REMARK  105  A    between atoms: _248  and  _249
REMARK  106  A    between atoms: _252  and  _254
REMARK  107  A    between atoms: _254  and  _255
REMARK  108  A    between atoms: _257  and  _259
REMARK  109  A    between atoms: _259  and  _260
REMARK  110  A    between atoms: _259  and  _262
REMARK  111  A    between atoms: _262  and  _263
REMARK  112  A    between atoms: _263  and  _264
REMARK  113  A    between atoms: _264  and  _265
REMARK  114  A    between atoms: _274  and  _276
REMARK  115  A    between atoms: _276  and  _277
REMARK  116  A    between atoms: _276  and  _279
REMARK  117  A    between atoms: _279  and  _280
REMARK  118  A    between atoms: _280  and  _281
REMARK  119  A    between atoms: _281  and  _282
REMARK  120  A    between atoms: _291  and  _293
REMARK  121  A    between atoms: _293  and  _294
REMARK  122  A    between atoms: _293  and  _296
REMARK  123  A    between atoms: _296  and  _297
REMARK  124  A    between atoms: _300  and  _302
REMARK  125  A    between atoms: _302  and  _303
REMARK  126  A    between atoms: _302  and  _305
REMARK  127  A    between atoms: _305  and  _306
REMARK  128  A    between atoms: _309  and  _311
REMARK  129  A    between atoms: _311  and  _312
REMARK  130  A    between atoms: _311  and  _314
REMARK  131  A    between atoms: _314  and  _315
REMARK  132  A    between atoms: _318  and  _320
REMARK  133  A    between atoms: _320  and  _321
REMARK  134  A    between atoms: _320  and  _323
REMARK  135  A    between atoms: _323  and  _324
REMARK  136  A    between atoms: _327  and  _329
REMARK  137  A    between atoms: _329  and  _330
REMARK  138  A    between atoms: _329  and  _332
REMARK  139  A    between atoms: _332  and  _333
REMARK  140  A    between atoms: _336  and  _338
REMARK  141  A    between atoms: _338  and  _339
REMARK  142  A    between atoms: _341  and  _343
REMARK  143  A    between atoms: _343  and  _344
REMARK  144  A    between atoms: _347  and  _349
REMARK  145  A    between atoms: _349  and  _350
REMARK  146  A    between atoms: _349  and  _352
REMARK  147  A    between atoms: _352  and  _353
REMARK  148  A    between atoms: _356  and  _358
REMARK  149  A    between atoms: _358  and  _359
REMARK  150  A    between atoms: _358  and  _361
REMARK  151  A    between atoms: _361  and  _362
REMARK  152  A    between atoms: _365  and  _367
REMARK  153  A    between atoms: _367  and  _368
REMARK  154  A    between atoms: _367  and  _370
REMARK  155  A    between atoms: _370  and  _371
REMARK  156  A    between atoms: _374  and  _376
REMARK  157  A    between atoms: _376  and  _377
REMARK  158  A    between atoms: _376  and  _379
REMARK  159  A    between atoms: _382  and  _384
REMARK  160  A    between atoms: _384  and  _385
REMARK  161  A    between atoms: _384  and  _387
REMARK  162  A    between atoms: _387  and  _388
REMARK  163  A    between atoms: _388  and  _389
REMARK  164  A    between atoms: _389  and  _390
REMARK  165  A    between atoms: _390  and  _391
REMARK  166  A    between atoms: _395  and  _397
REMARK  167  A    between atoms: _397  and  _398
REMARK  168  A    between atoms: _397  and  _400
REMARK  169  A    between atoms: _400  and  _401
REMARK  170  A    between atoms: _401  and  _402
REMARK  171  A    between atoms: _404  and  _406
REMARK  172  A    between atoms: _406  and  _407
REMARK  173  A    between atoms: _406  and  _409
REMARK  174  A    between atoms: _409  and  _410
REMARK  175  A    between atoms: _413  and  _415
REMARK  176  A    between atoms: _415  and  _416
REMARK  177  A    between atoms: _418  and  _420
REMARK  178  A    between atoms: _420  and  _421
REMARK  179  A    between atoms: _423  and  _425
REMARK  180  A    between atoms: _425  and  _426
REMARK  181  A    between atoms: _425  and  _428
REMARK  182  A    between atoms: _428  and  _429
REMARK  183  A    between atoms: _432  and  _434
REMARK  184  A    between atoms: _434  and  _435
REMARK  185  A    between atoms: _437  and  _439
REMARK  186  A    between atoms: _439  and  _440
REMARK  187  A    between atoms: _442  and  _444
REMARK  188  A    between atoms: _444  and  _445
REMARK  189  A    between atoms: _444  and  _447
REMARK  190  A    between atoms: _447  and  _448
REMARK  191  A    between atoms: _454  and  _456
REMARK  192  A    between atoms: _456  and  _457
REMARK  193  A    between atoms: _456  and  _459
REMARK  194  A    between atoms: _459  and  _460
REMARK  195  A    between atoms: _463  and  _465
REMARK  196  A    between atoms: _465  and  _466
REMARK  197  A    between atoms: _465  and  _468
REMARK  198  A    between atoms: _471  and  _473
REMARK  199  A    between atoms: _473  and  _474
REMARK  200  A    between atoms: _473  and  _476
REMARK  201  A    between atoms: _476  and  _477
REMARK  202  A    between atoms: _480  and  _482
REMARK  203  A    between atoms: _482  and  _483
REMARK  204  A    between atoms: _482  and  _485
REMARK  205  A    between atoms: _485  and  _486
REMARK  206  A    between atoms: _490  and  _491
REMARK  207  A    between atoms: _496  and  _498
REMARK  208  A    between atoms: _498  and  _499
REMARK  209  A    between atoms: _498  and  _501
REMARK  210  A    between atoms: _504  and  _506
REMARK  211  A    between atoms: _506  and  _507
REMARK  212  A    between atoms: _506  and  _509
REMARK  213  A    between atoms: _509  and  _510
REMARK  214  A    between atoms: _515  and  _517
REMARK  215  A    between atoms: _517  and  _518
REMARK  216  A    between atoms: _517  and  _520
REMARK  217  A    between atoms: _520  and  _521
REMARK  218  A    between atoms: _524  and  _526
REMARK  219  A    between atoms: _526  and  _527
REMARK  220  A    between atoms: _526  and  _529
REMARK  221  A    between atoms: _529  and  _530
REMARK  222  A    between atoms: _533  and  _535
REMARK  223  A    between atoms: _535  and  _536
REMARK  224  A    between atoms: _538  and  _540
REMARK  225  A    between atoms: _540  and  _541
REMARK  226  A    between atoms: _540  and  _543
REMARK  227  A    between atoms: _543  and  _544
REMARK  228  A    between atoms: _544  and  _545
REMARK  229  A    between atoms: _545  and  _546
REMARK  230  A    between atoms: _555  and  _557
REMARK  231  A    between atoms: _557  and  _558
REMARK  232  A    between atoms: _557  and  _560
REMARK  233  A    between atoms: _560  and  _561
REMARK                            x       y       z     vdW  Elec       q    Type
REMARK                         _______ _______ _______ _____ _____    ______ ____
ROOT
ATOM      1  CA  LEU A   1      21.309  30.453   6.649  0.00  0.00    +0.133 C 
ENDROOT
BRANCH   1   2
ATOM      2  N   LEU A   1      20.506  31.606   7.017  0.00  0.00    -0.239 NA
ATOM      3  H   LEU A   1      19.823  31.524   7.797  0.00  0.00    +0.142 HD
ENDBRANCH   1   2
BRANCH   1   4
ATOM      4  C   LEU A   1      20.448  29.543   5.775  0.00  0.00    +0.224 C 
ATOM      5  O   LEU A   1      19.270  29.335   6.073  0.00  0.00    -0.287 OA
ENDBRANCH   1   4
BRANCH   1   6
ATOM      6  CB  LEU A   1      21.759  29.711   7.907  0.00  0.00    +0.025 C 
BRANCH   6   7
ATOM      7  CG  LEU A   1      22.441  30.569   8.978  0.00  0.00    +0.002 C 
ATOM      8  CD2 LEU A   1      22.875  29.679  10.122  0.00  0.00    +0.000 C 
ATOM      9  CD1 LEU A   1      23.643  31.305   8.387  0.00  0.00    +0.000 C 
ENDBRANCH   6   7
ENDBRANCH   1   6
TORSDOF 4
REMARK  Name = ../refined-set-2016/1mrw/1mrw_pocket.pdb
REMARK  233 active torsions:
REMARK  status: ('A' for Active; 'I' for Inactive)
REMARK    1  A    between atoms: _1  and  _3
REMARK    2  A    between atoms: _3  and  _4
REMARK    3  A    between atoms: _3  and  _6
REMARK    4  A    between atoms: _6  and  _7
REMARK    5  A    between atoms: _7  and  _8
REMARK    6  A    between atoms: _8  and  _9
REMARK    7  A    between atoms: _18  and  _20
REMARK    8  A    between atoms: _20  and  _21
REMARK    9  A    between atoms: _20  and  _23
REMARK   10  A    between atoms: _23  and  _24
REMARK   11  A    between atoms: _27  and  _29
REMARK   12  A    between atoms: _29  and  _30
REMARK   13  A    between atoms: _29  and  _32
REMARK   14  A    between atoms: _32  and  _33
REMARK   15  A    between atoms: _36  and  _38
REMARK   16  A    between atoms: _38  and  _39
REMARK   17  A    between atoms: _38  and  _41
REMARK   18  A    between atoms: _41  and  _42
REMARK   19  A    between atoms: _45  and  _47
REMARK   20  A    between atoms: _47  and  _48
REMARK   21  A    between atoms: _47  and  _50
REMARK   22  A    between atoms: _50  and  _51
REMARK   23  A    between atoms: _54  and  _56
REMARK   24  A    between atoms: _56  and  _57
REMARK   25  A    between atoms: _56  and  _59
REMARK   26  A    between atoms: _59  and  _60
REMARK   27  A    between atoms: _63  and  _65
REMARK   28  A    between atoms: _65  and  _66
REMARK   29  A    between atoms: _68  and  _70
REMARK   30  A    between atoms: _70  and  _71
REMARK   31  A    between atoms: _74  and  _76
REMARK   32  A    between atoms: _76  and  _77
REMARK   33  A    between atoms: _76  and  _79
REMARK   34  A    between atoms: _79  and  _80
REMARK   35  A    between atoms: _83  and  _85
REMARK   36  A    between atoms: _85  and  _86
REMARK   37  A    between atoms: _85  and  _88
REMARK   38  A    between atoms: _88  and  _89
REMARK   39  A    between atoms: _92  and  _94
REMARK   40  A    between atoms: _94  and  _95
REMARK   41  A    between atoms: _94  and  _97
REMARK   42  A    between atoms: _97  and  _98
REMARK   43  A    between atoms: _101  and  _103
REMARK   44  A    between atoms: _103  and  _104
REMARK   45  A    between atoms: _103  and  _106
REMARK   46  A    between atoms: _109  and  _111
REMARK   47  A    between atoms: _111  and  _112
REMARK   48  A    between atoms: _111  and  _114
REMARK   49  A    between atoms: _114  and  _115
REMARK   50  A    between atoms: _115  and  _116
REMARK   51  A    between atoms: _116  and  _117
REMARK   52  A    between atoms: _117  and  _118
REMARK   53  A    between atoms: _122  and  _124
REMARK   54  A    between atoms: _124  and  _125
REMARK   55  A    between atoms: _124  and  _127
REMARK   56  A    between atoms: _127  and  _128
REMARK   57  A    between atoms: _128  and  _129
REMARK   58  A    between atoms: _131  and  _133
REMARK   59  A    between atoms: _133  and  _134
REMARK   60  A    between atoms: _133  and  _136
REMARK   61  A    between atoms: _136  and  _137
REMARK   62  A    between atoms: _140  and  _142
REMARK   63  A    between atoms: _142  and  _143
REMARK   64  A    between atoms: _145  and  _147
REMARK   65  A    between atoms: _147  and  _148
REMARK   66  A    between atoms: _150  and  _152
REMARK   67  A    between atoms: _152  and  _153
REMARK   68  A    between atoms: _152  and  _155
REMARK   69  A    between atoms: _155  and  _156
REMARK   70  A    between atoms: _159  and  _161
REMARK   71  A    between atoms: _161  and  _162
REMARK   72  A    between atoms: _164  and  _166
REMARK   73  A    between atoms: _166  and  _167
REMARK   74  A    between atoms: _169  and  _171
REMARK   75  A    between atoms: _171  and  _172
REMARK   76  A    between atoms: _171  and  _174
REMARK   77  A    between atoms: _174  and  _175
REMARK   78  A    between atoms: _181  and  _183
REMARK   79  A    between atoms: _183  and  _184
REMARK   80  A    between atoms: _183  and  _186
REMARK   81  A    between atoms: _186  and  _187
REMARK   82  A    between atoms: _190  and  _192
REMARK   83  A    between atoms: _192  and  _193
REMARK   84  A    between atoms: _192  and  _195
REMARK   85  A    between atoms: _195  and  _196
REMARK   86  A    between atoms: _199  and  _201
REMARK   87  A    between atoms: _201  and  _202
REMARK   88  A    between atoms: _201  and  _204
REMARK   89  A    between atoms: _204  and  _205
REMARK   90  A    between atoms: _209  and  _210
REMARK   91  A    between atoms: _215  and  _217
REMARK   92  A    between atoms: _217  and  _218
REMARK   93  A    between atoms: _217  and  _220
REMARK   94  A    between atoms: _223  and  _225
REMARK   95  A    between atoms: _225  and  _226
REMARK   96  A    between atoms: _225  and  _228
REMARK   97  A    between atoms: _228  and  _229
REMARK   98  A    between atoms: _234  and  _236
REMARK   99  A    between atoms: _236  and  _237
REMARK  100  A    between atoms: _236  and  _239
REMARK  101  A    between atoms: _239  and  _240
REMARK  102  A    between atoms: _243  and  _245
REMARK  103  A    between atoms: _245  and  _246
REMARK  104  A    between atoms: _245  and  _248
REMARK  105  A    between atoms: _248  and  _249
REMARK  106  A    between atoms: _252  and  _254
REMARK  107  A    between atoms: _254  and  _255
REMARK  108  A    between atoms: _257  and  _259
REMARK  109  A    between atoms: _259  and  _260
REMARK  110  A    between atoms: _259  and  _262
REMARK  111  A    between atoms: _262  and  _263
REMARK  112  A    between atoms: _263  and  _264
REMARK  113  A    between atoms: _264  and  _265
REMARK  114  A    between atoms: _274  and  _276
REMARK  115  A    between atoms: _276  and  _277
REMARK  116  A    between atoms: _276  and  _279
REMARK  117  A    between atoms: _279  and  _280
REMARK  118  A    between atoms: _280  and  _281
REMARK  119  A    between atoms: _281  and  _282
REMARK  120  A    between atoms: _291  and  _293
REMARK  121  A    between atoms: _293  and  _294
REMARK  122  A    between atoms: _293  and  _296
REMARK  123  A    between atoms: _296  and  _297
REMARK  124  A    between atoms: _300  and  _302
REMARK  125  A    between atoms: _302  and  _303
REMARK  126  A    between atoms: _302  and  _305
REMARK  127  A    between atoms: _305  and  _306
REMARK  128  A    between atoms: _309  and  _311
REMARK  129  A    between atoms: _311  and  _312
REMARK  130  A    between atoms: _311  and  _314
REMARK  131  A    between atoms: _314  and  _315
REMARK  132  A    between atoms: _318  and  _320
REMARK  133  A    between atoms: _320  and  _321
REMARK  134  A    between atoms: _320  and  _323
REMARK  135  A    between atoms: _323  and  _324
REMARK  136  A    between atoms: _327  and  _329
REMARK  137  A    between atoms: _329  and  _330
REMARK  138  A    between atoms: _329  and  _332
REMARK  139  A    between atoms: _332  and  _333
REMARK  140  A    between atoms: _336  and  _338
REMARK  141  A    between atoms: _338  and  _339
REMARK  142  A    between atoms: _341  and  _343
REMARK  143  A    between atoms: _343  and  _344
REMARK  144  A    between atoms: _347  and  _349
REMARK  145  A    between atoms: _349  and  _350
REMARK  146  A    between atoms: _349  and  _352
REMARK  147  A    between atoms: _352  and  _353
REMARK  148  A    between atoms: _356  and  _358
REMARK  149  A    between atoms: _358  and  _359
REMARK  150  A    between atoms: _358  and  _361
REMARK  151  A    between atoms: _361  and  _362
REMARK  152  A    between atoms: _365  and  _367
REMARK  153  A    between atoms: _367  and  _368
REMARK  154  A    between atoms: _367  and  _370
REMARK  155  A    between atoms: _370  and  _371
REMARK  156  A    between atoms: _374  and  _376
REMARK  157  A    between atoms: _376  and  _377
REMARK  158  A    between atoms: _376  and  _379
REMARK  159  A    between atoms: _382  and  _384
REMARK  160  A    between atoms: _384  and  _385
REMARK  161  A    between atoms: _384  and  _387
REMARK  162  A    between atoms: _387  and  _388
REMARK  163  A    between atoms: _388  and  _389
REMARK  164  A    between atoms: _389  and  _390
REMARK  165  A    between atoms: _390  and  _391
REMARK  166  A    between atoms: _395  and  _397
REMARK  167  A    between atoms: _397  and  _398
REMARK  168  A    between atoms: _397  and  _400
REMARK  169  A    between atoms: _400  and  _401
REMARK  170  A    between atoms: _401  and  _402
REMARK  171  A    between atoms: _404  and  _406
REMARK  172  A    between atoms: _406  and  _407
REMARK  173  A    between atoms: _406  and  _409
REMARK  174  A    between atoms: _409  and  _410
REMARK  175  A    between atoms: _413  and  _415
REMARK  176  A    between atoms: _415  and  _416
REMARK  177  A    between atoms: _418  and  _420
REMARK  178  A    between atoms: _420  and  _421
REMARK  179  A    between atoms: _423  and  _425
REMARK  180  A    between atoms: _425  and  _426
REMARK  181  A    between atoms: _425  and  _428
REMARK  182  A    between atoms: _428  and  _429
REMARK  183  A    between atoms: _432  and  _434
REMARK  184  A    between atoms: _434  and  _435
REMARK  185  A    between atoms: _437  and  _439
REMARK  186  A    between atoms: _439  and  _440
REMARK  187  A    between atoms: _442  and  _444
REMARK  188  A    between atoms: _444  and  _445
REMARK  189  A    between atoms: _444  and  _447
REMARK  190  A    between atoms: _447  and  _448
REMARK  191  A    between atoms: _454  and  _456
REMARK  192  A    between atoms: _456  and  _457
REMARK  193  A    between atoms: _456  and  _459
REMARK  194  A    between atoms: _459  and  _460
REMARK  195  A    between atoms: _463  and  _465
REMARK  196  A    between atoms: _465  and  _466
REMARK  197  A    between atoms: _465  and  _468
REMARK  198  A    between atoms: _471  and  _473
REMARK  199  A    between atoms: _473  and  _474
REMARK  200  A    between atoms: _473  and  _476
REMARK  201  A    between atoms: _476  and  _477
REMARK  202  A    between atoms: _480  and  _482
REMARK  203  A    between atoms: _482  and  _483
REMARK  204  A    between atoms: _482  and  _485
REMARK  205  A    between atoms: _485  and  _486
REMARK  206  A    between atoms: _490  and  _491
REMARK  207  A    between atoms: _496  and  _498
REMARK  208  A    between atoms: _498  and  _499
REMARK  209  A    between atoms: _498  and  _501
REMARK  210  A    between atoms: _504  and  _506
REMARK  211  A    between atoms: _506  and  _507
REMARK  212  A    between atoms: _506  and  _509
REMARK  213  A    between atoms: _509  and  _510
REMARK  214  A    between atoms: _515  and  _517
REMARK  215  A    between atoms: _517  and  _518
REMARK  216  A    between atoms: _517  and  _520
REMARK  217  A    between atoms: _520  and  _521
REMARK  218  A    between atoms: _524  and  _526
REMARK  219  A    between atoms: _526  and  _527
REMARK  220  A    between atoms: _526  and  _529
REMARK  221  A    between atoms: _529  and  _530
REMARK  222  A    between atoms: _533  and  _535
REMARK  223  A    between atoms: _535  and  _536
REMARK  224  A    between atoms: _538  and  _540
REMARK  225  A    between atoms: _540  and  _541
REMARK  226  A    between atoms: _540  and  _543
REMARK  227  A    between atoms: _543  and  _544
REMARK  228  A    between atoms: _544  and  _545
REMARK  229  A    between atoms: _545  and  _546
REMARK  230  A    between atoms: _555  and  _557
REMARK  231  A    between atoms: _557  and  _558
REMARK  232  A    between atoms: _557  and  _560
REMARK  233  A    between atoms: _560  and  _561
REMARK                            x       y       z     vdW  Elec       q    Type
REMARK                         _______ _______ _______ _____ _____    ______ ____
ROOT
ATOM      1  CA  ILE A   5      13.332  28.136  11.351  0.00  0.00    +0.149 C 
ENDROOT
BRANCH   1   2
ATOM      2  C   ILE A   5      13.578  29.637  11.431  0.00  0.00    +0.241 C 
ATOM      3  N   ILE A   6      12.732  30.337  12.179  0.00  0.00    -0.297 N 
ATOM      4  H   ILE A   6      11.925  29.857  12.626  0.00  0.00    +0.150 HD
ATOM      5  O   ILE A   5      14.519  30.150  10.839  0.00  0.00    -0.273 OA
BRANCH   3   6
ATOM      6  CA  ILE A   6      12.920  31.768  12.382  0.00  0.00    +0.149 C 
BRANCH   6   7
ATOM      7  C   ILE A   6      13.581  31.872  13.758  0.00  0.00    +0.241 C 
ATOM      8  O   ILE A   6      12.943  31.620  14.781  0.00  0.00    -0.273 OA
ATOM      9  N   GLY A   7      14.862  32.223  13.779  0.00  0.00    -0.295 N 
ATOM     10  H   GLY A   7      15.357  32.419  12.886  0.00  0.00    +0.150 HD
BRANCH   9  11
ATOM     11  CA  GLY A   7      15.578  32.335  15.040  0.00  0.00    +0.176 C 
BRANCH  11  12
ATOM     12  C   GLY A   7      15.526  33.692  15.724  0.00  0.00    +0.243 C 
ATOM     13  N   ARG A   8      16.240  33.804  16.846  0.00  0.00    -0.298 N 
ATOM     14  H   ARG A   8      16.794  32.985  17.168  0.00  0.00    +0.150 HD
ATOM     15  O   GLY A   7      14.870  34.621  15.248  0.00  0.00    -0.273 OA
BRANCH  13  16
ATOM     16  CA  ARG A   8      16.276  35.031  17.642  0.00  0.00    +0.137 C 
BRANCH  16  17
ATOM     17  C   ARG A   8      16.779  36.266  16.909  0.00  0.00    +0.227 C 
ATOM     18  O   ARG A   8      16.319  37.378  17.185  0.00  0.00    -0.286 OA
ENDBRANCH  16  17
BRANCH  16  19
ATOM     19  CB  ARG A   8      17.122  34.821  18.909  0.00  0.00    +0.031 C 
BRANCH  19  20
ATOM     20  CG  ARG A   8      16.532  33.814  19.891  0.00  0.00    +0.045 C 
BRANCH  20  21
ATOM     21  CD  ARG A   8      17.290  33.782  21.228  0.00  0.00    +0.174 C 
BRANCH  21  22
ATOM     22  NE  ARG A   8      18.680  33.363  21.071  0.00  0.00    -0.265 N 
ATOM     23  HE  ARG A   8      18.874  32.343  21.018  0.00  0.00    +0.259 HD
ATOM     24  CZ  ARG A   8      19.717  34.194  20.991  0.00  0.00    +0.342 C 
ATOM     25  NH2 ARG A   8      19.530  35.509  21.058  0.00  0.00    -0.292 N 
ATOM     26 HH21 ARG A   8      18.570  35.893  21.173  0.00  0.00    +0.255 HD
ATOM     27 HH22 ARG A   8      20.344  36.154  20.995  0.00  0.00    +0.255 HD
ATOM     28  NH1 ARG A   8      20.944  33.707  20.836  0.00  0.00    -0.292 N 
ATOM     29 HH11 ARG A   8      21.092  32.679  20.778  0.00  0.00    +0.255 HD
ATOM     30 HH12 ARG A   8      21.756  34.354  20.773  0.00  0.00    +0.255 HD
ENDBRANCH  21  22
ENDBRANCH  20  21
ENDBRANCH  19  20
ENDBRANCH  16  19
ENDBRANCH  13  16
ENDBRANCH  11  12
ENDBRANCH   9  11
ENDBRANCH   6   7
BRANCH   6  31
ATOM     31  CB  ILE A   6      11.581  32.537  12.405  0.00  0.00    +0.027 C 
ATOM     32  CG2 ILE A   6      11.832  34.017  12.697  0.00  0.00    +0.002 C 
BRANCH  31  33
ATOM     33  CG1 ILE A   6      10.861  32.384  11.066  0.00  0.00    +0.002 C 
ATOM     34  CD1 ILE A   6      11.698  32.790   9.863  0.00  0.00    +0.000 C 
ENDBRANCH  31  33
ENDBRANCH   6  31
ENDBRANCH   3   6
ENDBRANCH   1   2
BRANCH   1  37
ATOM     35  C   ASN A   4      12.119  26.944   9.612  0.00  0.00    +0.241 C 
ATOM     36  O   ASN A   4      11.102  26.854  10.310  0.00  0.00    -0.273 OA
ATOM     37  N   ILE A   5      13.222  27.562  10.018  0.00  0.00    -0.297 N 
ATOM     38  H   ILE A   5      14.029  27.638   9.366  0.00  0.00    +0.150 HD
BRANCH  35  39
ATOM     39  CA  ASN A   4      12.175  26.330   8.214  0.00  0.00    +0.158 C 
BRANCH  39  42
ATOM     40  C   VAL A   3      12.482  24.051   8.953  0.00  0.00    +0.241 C 
ATOM     41  O   VAL A   3      13.581  24.327   9.432  0.00  0.00    -0.273 OA
ATOM     42  N   ASN A   4      11.726  24.948   8.330  0.00  0.00    -0.297 N 
ATOM     43  H   ASN A   4      10.812  24.664   7.924  0.00  0.00    +0.150 HD
BRANCH  40  44
ATOM     44  CA  VAL A   3      11.931  22.634   9.053  0.00  0.00    +0.149 C 
BRANCH  44  46
ATOM     45  C   PRO A   2      12.855  20.487   8.376  0.00  0.00    +0.241 C 
ATOM     46  N   VAL A   3      13.027  21.682   8.929  0.00  0.00    -0.297 N 
ATOM     47  H   VAL A   3      13.969  21.945   9.283  0.00  0.00    +0.150 HD
ATOM     48  O   PRO A   2      11.776  20.101   7.917  0.00  0.00    -0.273 OA
BRANCH  45  54
ATOM     49  C   THR A   1      15.763  21.138   7.378  0.00  0.00    +0.244 C 
ATOM     50  N   PRO A   2      15.344  20.350   8.382  0.00  0.00    -0.272 N 
ATOM     51  CD  PRO A   2      16.138  19.974   9.563  0.00  0.00    +0.094 C 
ATOM     52  CG  PRO A   2      15.630  18.580   9.850  0.00  0.00    +0.024 C 
ATOM     53  CB  PRO A   2      14.164  18.718   9.600  0.00  0.00    +0.031 C 
ATOM     54  CA  PRO A   2      14.086  19.590   8.345  0.00  0.00    +0.152 C 
ATOM     55  O   THR A   1      15.117  21.265   6.336  0.00  0.00    -0.273 OA
BRANCH  49  56
ATOM     56  CA  THR A   1      17.098  21.863   7.563  0.00  0.00    +0.172 C 
BRANCH  56  57
ATOM     57  N   THR A   1      17.821  21.873   6.294  0.00  0.00    -0.236 NA
ATOM     58  H   THR A   1      17.790  22.719   5.690  0.00  0.00    +0.142 HD
ENDBRANCH  56  57
BRANCH  56  59
ATOM     59  CB  THR A   1      16.842  23.295   8.089  0.00  0.00    +0.135 C 
ATOM     60  CG2 THR A   1      16.086  24.132   7.062  0.00  0.00    +0.034 C 
BRANCH  59  61
ATOM     61  OG1 THR A   1      16.085  23.228   9.303  0.00  0.00    -0.383 OA
ATOM     62  HG1 THR A   1      15.220  22.780   9.127  0.00  0.00    +0.210 HD
ENDBRANCH  59  61
ENDBRANCH  56  59
ENDBRANCH  49  56
ENDBRANCH  45  54
ENDBRANCH  44  46
BRANCH  44  63
ATOM     63  CB  VAL A   3      11.220  22.467  10.430  0.00  0.00    +0.027 C 
ATOM     64  CG2 VAL A   3      10.147  23.531  10.607  0.00  0.00    +0.002 C 
ATOM     65  CG1 VAL A   3      10.610  21.072  10.538  0.00  0.00    +0.002 C 
ENDBRANCH  44  63
ENDBRANCH  40  44
ENDBRANCH  39  42
BRANCH  39  66
ATOM     66  CB  ASN A   4      11.295  27.090   7.217  0.00  0.00    +0.114 C 
BRANCH  66  67
ATOM     67  CG  ASN A   4      11.437  26.554   5.790  0.00  0.00    +0.222 C 
ATOM     68  OD1 ASN A   4      12.543  26.223   5.349  0.00  0.00    -0.275 OA
ATOM     69  ND2 ASN A   4      10.321  26.474   5.061  0.00  0.00    -0.329 N 
ATOM     70 HD21 ASN A   4       9.410  26.763   5.471  0.00  0.00    +0.145 HD
ATOM     71 HD22 ASN A   4      10.363  26.123   4.083  0.00  0.00    +0.145 HD
ENDBRANCH  66  67
ENDBRANCH  39  66
ENDBRANCH  35  39
ENDBRANCH   1  37
BRANCH   1  72
ATOM     72  CB  ILE A   5      14.475  27.430  12.134  0.00  0.00    +0.027 C 
ATOM     73  CG2 ILE A   5      14.716  28.117  13.488  0.00  0.00    +0.002 C 
BRANCH  72  74
ATOM     74  CG1 ILE A   5      14.133  25.953  12.315  0.00  0.00    +0.002 C 
ATOM     75  CD1 ILE A   5      15.277  25.123  12.861  0.00  0.00    +0.000 C 
ENDBRANCH  72  74
ENDBRANCH   1  72
TORSDOF 28
REMARK  Name = ../refined-set-2016/1mrw/1mrw_pocket.pdb
REMARK  233 active torsions:
REMARK  status: ('A' for Active; 'I' for Inactive)
REMARK    1  A    between atoms: _1  and  _3
REMARK    2  A    between atoms: _3  and  _4
REMARK    3  A    between atoms: _3  and  _6
REMARK    4  A    between atoms: _6  and  _7
REMARK    5  A    between atoms: _7  and  _8
REMARK    6  A    between atoms: _8  and  _9
REMARK    7  A    between atoms: _18  and  _20
REMARK    8  A    between atoms: _20  and  _21
REMARK    9  A    between atoms: _20  and  _23
REMARK   10  A    between atoms: _23  and  _24
REMARK   11  A    between atoms: _27  and  _29
REMARK   12  A    between atoms: _29  and  _30
REMARK   13  A    between atoms: _29  and  _32
REMARK   14  A    between atoms: _32  and  _33
REMARK   15  A    between atoms: _36  and  _38
REMARK   16  A    between atoms: _38  and  _39
REMARK   17  A    between atoms: _38  and  _41
REMARK   18  A    between atoms: _41  and  _42
REMARK   19  A    between atoms: _45  and  _47
REMARK   20  A    between atoms: _47  and  _48
REMARK   21  A    between atoms: _47  and  _50
REMARK   22  A    between atoms: _50  and  _51
REMARK   23  A    between atoms: _54  and  _56
REMARK   24  A    between atoms: _56  and  _57
REMARK   25  A    between atoms: _56  and  _59
REMARK   26  A    between atoms: _59  and  _60
REMARK   27  A    between atoms: _63  and  _65
REMARK   28  A    between atoms: _65  and  _66
REMARK   29  A    between atoms: _68  and  _70
REMARK   30  A    between atoms: _70  and  _71
REMARK   31  A    between atoms: _74  and  _76
REMARK   32  A    between atoms: _76  and  _77
REMARK   33  A    between atoms: _76  and  _79
REMARK   34  A    between atoms: _79  and  _80
REMARK   35  A    between atoms: _83  and  _85
REMARK   36  A    between atoms: _85  and  _86
REMARK   37  A    between atoms: _85  and  _88
REMARK   38  A    between atoms: _88  and  _89
REMARK   39  A    between atoms: _92  and  _94
REMARK   40  A    between atoms: _94  and  _95
REMARK   41  A    between atoms: _94  and  _97
REMARK   42  A    between atoms: _97  and  _98
REMARK   43  A    between atoms: _101  and  _103
REMARK   44  A    between atoms: _103  and  _104
REMARK   45  A    between atoms: _103  and  _106
REMARK   46  A    between atoms: _109  and  _111
REMARK   47  A    between atoms: _111  and  _112
REMARK   48  A    between atoms: _111  and  _114
REMARK   49  A    between atoms: _114  and  _115
REMARK   50  A    between atoms: _115  and  _116
REMARK   51  A    between atoms: _116  and  _117
REMARK   52  A    between atoms: _117  and  _118
REMARK   53  A    between atoms: _122  and  _124
REMARK   54  A    between atoms: _124  and  _125
REMARK   55  A    between atoms: _124  and  _127
REMARK   56  A    between atoms: _127  and  _128
REMARK   57  A    between atoms: _128  and  _129
REMARK   58  A    between atoms: _131  and  _133
REMARK   59  A    between atoms: _133  and  _134
REMARK   60  A    between atoms: _133  and  _136
REMARK   61  A    between atoms: _136  and  _137
REMARK   62  A    between atoms: _140  and  _142
REMARK   63  A    between atoms: _142  and  _143
REMARK   64  A    between atoms: _145  and  _147
REMARK   65  A    between atoms: _147  and  _148
REMARK   66  A    between atoms: _150  and  _152
REMARK   67  A    between atoms: _152  and  _153
REMARK   68  A    between atoms: _152  and  _155
REMARK   69  A    between atoms: _155  and  _156
REMARK   70  A    between atoms: _159  and  _161
REMARK   71  A    between atoms: _161  and  _162
REMARK   72  A    between atoms: _164  and  _166
REMARK   73  A    between atoms: _166  and  _167
REMARK   74  A    between atoms: _169  and  _171
REMARK   75  A    between atoms: _171  and  _172
REMARK   76  A    between atoms: _171  and  _174
REMARK   77  A    between atoms: _174  and  _175
REMARK   78  A    between atoms: _181  and  _183
REMARK   79  A    between atoms: _183  and  _184
REMARK   80  A    between atoms: _183  and  _186
REMARK   81  A    between atoms: _186  and  _187
REMARK   82  A    between atoms: _190  and  _192
REMARK   83  A    between atoms: _192  and  _193
REMARK   84  A    between atoms: _192  and  _195
REMARK   85  A    between atoms: _195  and  _196
REMARK   86  A    between atoms: _199  and  _201
REMARK   87  A    between atoms: _201  and  _202
REMARK   88  A    between atoms: _201  and  _204
REMARK   89  A    between atoms: _204  and  _205
REMARK   90  A    between atoms: _209  and  _210
REMARK   91  A    between atoms: _215  and  _217
REMARK   92  A    between atoms: _217  and  _218
REMARK   93  A    between atoms: _217  and  _220
REMARK   94  A    between atoms: _223  and  _225
REMARK   95  A    between atoms: _225  and  _226
REMARK   96  A    between atoms: _225  and  _228
REMARK   97  A    between atoms: _228  and  _229
REMARK   98  A    between atoms: _234  and  _236
REMARK   99  A    between atoms: _236  and  _237
REMARK  100  A    between atoms: _236  and  _239
REMARK  101  A    between atoms: _239  and  _240
REMARK  102  A    between atoms: _243  and  _245
REMARK  103  A    between atoms: _245  and  _246
REMARK  104  A    between atoms: _245  and  _248
REMARK  105  A    between atoms: _248  and  _249
REMARK  106  A    between atoms: _252  and  _254
REMARK  107  A    between atoms: _254  and  _255
REMARK  108  A    between atoms: _257  and  _259
REMARK  109  A    between atoms: _259  and  _260
REMARK  110  A    between atoms: _259  and  _262
REMARK  111  A    between atoms: _262  and  _263
REMARK  112  A    between atoms: _263  and  _264
REMARK  113  A    between atoms: _264  and  _265
REMARK  114  A    between atoms: _274  and  _276
REMARK  115  A    between atoms: _276  and  _277
REMARK  116  A    between atoms: _276  and  _279
REMARK  117  A    between atoms: _279  and  _280
REMARK  118  A    between atoms: _280  and  _281
REMARK  119  A    between atoms: _281  and  _282
REMARK  120  A    between atoms: _291  and  _293
REMARK  121  A    between atoms: _293  and  _294
REMARK  122  A    between atoms: _293  and  _296
REMARK  123  A    between atoms: _296  and  _297
REMARK  124  A    between atoms: _300  and  _302
REMARK  125  A    between atoms: _302  and  _303
REMARK  126  A    between atoms: _302  and  _305
REMARK  127  A    between atoms: _305  and  _306
REMARK  128  A    between atoms: _309  and  _311
REMARK  129  A    between atoms: _311  and  _312
REMARK  130  A    between atoms: _311  and  _314
REMARK  131  A    between atoms: _314  and  _315
REMARK  132  A    between atoms: _318  and  _320
REMARK  133  A    between atoms: _320  and  _321
REMARK  134  A    between atoms: _320  and  _323
REMARK  135  A    between atoms: _323  and  _324
REMARK  136  A    between atoms: _327  and  _329
REMARK  137  A    between atoms: _329  and  _330
REMARK  138  A    between atoms: _329  and  _332
REMARK  139  A    between atoms: _332  and  _333
REMARK  140  A    between atoms: _336  and  _338
REMARK  141  A    between atoms: _338  and  _339
REMARK  142  A    between atoms: _341  and  _343
REMARK  143  A    between atoms: _343  and  _344
REMARK  144  A    between atoms: _347  and  _349
REMARK  145  A    between atoms: _349  and  _350
REMARK  146  A    between atoms: _349  and  _352
REMARK  147  A    between atoms: _352  and  _353
REMARK  148  A    between atoms: _356  and  _358
REMARK  149  A    between atoms: _358  and  _359
REMARK  150  A    between atoms: _358  and  _361
REMARK  151  A    between atoms: _361  and  _362
REMARK  152  A    between atoms: _365  and  _367
REMARK  153  A    between atoms: _367  and  _368
REMARK  154  A    between atoms: _367  and  _370
REMARK  155  A    between atoms: _370  and  _371
REMARK  156  A    between atoms: _374  and  _376
REMARK  157  A    between atoms: _376  and  _377
REMARK  158  A    between atoms: _376  and  _379
REMARK  159  A    between atoms: _382  and  _384
REMARK  160  A    between atoms: _384  and  _385
REMARK  161  A    between atoms: _384  and  _387
REMARK  162  A    between atoms: _387  and  _388
REMARK  163  A    between atoms: _388  and  _389
REMARK  164  A    between atoms: _389  and  _390
REMARK  165  A    between atoms: _390  and  _391
REMARK  166  A    between atoms: _395  and  _397
REMARK  167  A    between atoms: _397  and  _398
REMARK  168  A    between atoms: _397  and  _400
REMARK  169  A    between atoms: _400  and  _401
REMARK  170  A    between atoms: _401  and  _402
REMARK  171  A    between atoms: _404  and  _406
REMARK  172  A    between atoms: _406  and  _407
REMARK  173  A    between atoms: _406  and  _409
REMARK  174  A    between atoms: _409  and  _410
REMARK  175  A    between atoms: _413  and  _415
REMARK  176  A    between atoms: _415  and  _416
REMARK  177  A    between atoms: _418  and  _420
REMARK  178  A    between atoms: _420  and  _421
REMARK  179  A    between atoms: _423  and  _425
REMARK  180  A    between atoms: _425  and  _426
REMARK  181  A    between atoms: _425  and  _428
REMARK  182  A    between atoms: _428  and  _429
REMARK  183  A    between atoms: _432  and  _434
REMARK  184  A    between atoms: _434  and  _435
REMARK  185  A    between atoms: _437  and  _439
REMARK  186  A    between atoms: _439  and  _440
REMARK  187  A    between atoms: _442  and  _444
REMARK  188  A    between atoms: _444  and  _445
REMARK  189  A    between atoms: _444  and  _447
REMARK  190  A    between atoms: _447  and  _448
REMARK  191  A    between atoms: _454  and  _456
REMARK  192  A    between atoms: _456  and  _457
REMARK  193  A    between atoms: _456  and  _459
REMARK  194  A    between atoms: _459  and  _460
REMARK  195  A    between atoms: _463  and  _465
REMARK  196  A    between atoms: _465  and  _466
REMARK  197  A    between atoms: _465  and  _468
REMARK  198  A    between atoms: _471  and  _473
REMARK  199  A    between atoms: _473  and  _474
REMARK  200  A    between atoms: _473  and  _476
REMARK  201  A    between atoms: _476  and  _477
REMARK  202  A    between atoms: _480  and  _482
REMARK  203  A    between atoms: _482  and  _483
REMARK  204  A    between atoms: _482  and  _485
REMARK  205  A    between atoms: _485  and  _486
REMARK  206  A    between atoms: _490  and  _491
REMARK  207  A    between atoms: _496  and  _498
REMARK  208  A    between atoms: _498  and  _499
REMARK  209  A    between atoms: _498  and  _501
REMARK  210  A    between atoms: _504  and  _506
REMARK  211  A    between atoms: _506  and  _507
REMARK  212  A    between atoms: _506  and  _509
REMARK  213  A    between atoms: _509  and  _510
REMARK  214  A    between atoms: _515  and  _517
REMARK  215  A    between atoms: _517  and  _518
REMARK  216  A    between atoms: _517  and  _520
REMARK  217  A    between atoms: _520  and  _521
REMARK  218  A    between atoms: _524  and  _526
REMARK  219  A    between atoms: _526  and  _527
REMARK  220  A    between atoms: _526  and  _529
REMARK  221  A    between atoms: _529  and  _530
REMARK  222  A    between atoms: _533  and  _535
REMARK  223  A    between atoms: _535  and  _536
REMARK  224  A    between atoms: _538  and  _540
REMARK  225  A    between atoms: _540  and  _541
REMARK  226  A    between atoms: _540  and  _543
REMARK  227  A    between atoms: _543  and  _544
REMARK  228  A    between atoms: _544  and  _545
REMARK  229  A    between atoms: _545  and  _546
REMARK  230  A    between atoms: _555  and  _557
REMARK  231  A    between atoms: _557  and  _558
REMARK  232  A    between atoms: _557  and  _560
REMARK  233  A    between atoms: _560  and  _561
REMARK                            x       y       z     vdW  Elec       q    Type
REMARK                         _______ _______ _______ _____ _____    ______ ____
ROOT
ATOM      1  NE  ARG A   1      22.315  29.579  22.533  0.00  0.00    -0.265 N 
ATOM      2  CZ  ARG A   1      22.627  28.295  22.348  0.00  0.00    +0.342 C 
ATOM      3  NH2 ARG A   1      22.553  27.436  23.359  0.00  0.00    -0.292 N 
ATOM      4 HH21 ARG A   1      22.251  27.764  24.299  0.00  0.00    +0.255 HD
ATOM      5 HH22 ARG A   1      22.797  26.436  23.211  0.00  0.00    +0.255 HD
ATOM      6  NH1 ARG A   1      23.006  27.861  21.148  0.00  0.00    -0.292 N 
ATOM      7 HH11 ARG A   1      23.248  26.859  21.010  0.00  0.00    +0.255 HD
ATOM      8 HH12 ARG A   1      23.060  28.524  20.349  0.00  0.00    +0.255 HD
ATOM      9  HE  ARG A   1      22.385  30.218  21.715  0.00  0.00    +0.259 HD
ENDROOT
BRANCH   1  10
ATOM     10  CD  ARG A   1      21.881  30.150  23.810  0.00  0.00    +0.174 C 
BRANCH  10  11
ATOM     11  CG  ARG A   1      21.248  31.536  23.653  0.00  0.00    +0.045 C 
BRANCH  11  12
ATOM     12  CB  ARG A   1      20.516  31.942  24.927  0.00  0.00    +0.029 C 
BRANCH  12  13
ATOM     13  CA  ARG A   1      19.508  33.083  24.756  0.00  0.00    +0.133 C 
BRANCH  13  14
ATOM     14  N   ARG A   1      20.201  34.351  24.538  0.00  0.00    -0.239 NA
ATOM     15  H   ARG A   1      21.240  34.372  24.504  0.00  0.00    +0.142 HD
ENDBRANCH  13  14
BRANCH  13  16
ATOM     16  C   ARG A   1      18.593  33.142  25.983  0.00  0.00    +0.224 C 
ATOM     17  O   ARG A   1      18.999  33.605  27.047  0.00  0.00    -0.287 OA
ENDBRANCH  13  16
ENDBRANCH  12  13
ENDBRANCH  11  12
ENDBRANCH  10  11
ENDBRANCH   1  10
TORSDOF 6
REMARK  Name = ../refined-set-2016/1mrw/1mrw_pocket.pdb
REMARK  233 active torsions:
REMARK  status: ('A' for Active; 'I' for Inactive)
REMARK    1  A    between atoms: _1  and  _3
REMARK    2  A    between atoms: _3  and  _4
REMARK    3  A    between atoms: _3  and  _6
REMARK    4  A    between atoms: _6  and  _7
REMARK    5  A    between atoms: _7  and  _8
REMARK    6  A    between atoms: _8  and  _9
REMARK    7  A    between atoms: _18  and  _20
REMARK    8  A    between atoms: _20  and  _21
REMARK    9  A    between atoms: _20  and  _23
REMARK   10  A    between atoms: _23  and  _24
REMARK   11  A    between atoms: _27  and  _29
REMARK   12  A    between atoms: _29  and  _30
REMARK   13  A    between atoms: _29  and  _32
REMARK   14  A    between atoms: _32  and  _33
REMARK   15  A    between atoms: _36  and  _38
REMARK   16  A    between atoms: _38  and  _39
REMARK   17  A    between atoms: _38  and  _41
REMARK   18  A    between atoms: _41  and  _42
REMARK   19  A    between atoms: _45  and  _47
REMARK   20  A    between atoms: _47  and  _48
REMARK   21  A    between atoms: _47  and  _50
REMARK   22  A    between atoms: _50  and  _51
REMARK   23  A    between atoms: _54  and  _56
REMARK   24  A    between atoms: _56  and  _57
REMARK   25  A    between atoms: _56  and  _59
REMARK   26  A    between atoms: _59  and  _60
REMARK   27  A    between atoms: _63  and  _65
REMARK   28  A    between atoms: _65  and  _66
REMARK   29  A    between atoms: _68  and  _70
REMARK   30  A    between atoms: _70  and  _71
REMARK   31  A    between atoms: _74  and  _76
REMARK   32  A    between atoms: _76  and  _77
REMARK   33  A    between atoms: _76  and  _79
REMARK   34  A    between atoms: _79  and  _80
REMARK   35  A    between atoms: _83  and  _85
REMARK   36  A    between atoms: _85  and  _86
REMARK   37  A    between atoms: _85  and  _88
REMARK   38  A    between atoms: _88  and  _89
REMARK   39  A    between atoms: _92  and  _94
REMARK   40  A    between atoms: _94  and  _95
REMARK   41  A    between atoms: _94  and  _97
REMARK   42  A    between atoms: _97  and  _98
REMARK   43  A    between atoms: _101  and  _103
REMARK   44  A    between atoms: _103  and  _104
REMARK   45  A    between atoms: _103  and  _106
REMARK   46  A    between atoms: _109  and  _111
REMARK   47  A    between atoms: _111  and  _112
REMARK   48  A    between atoms: _111  and  _114
REMARK   49  A    between atoms: _114  and  _115
REMARK   50  A    between atoms: _115  and  _116
REMARK   51  A    between atoms: _116  and  _117
REMARK   52  A    between atoms: _117  and  _118
REMARK   53  A    between atoms: _122  and  _124
REMARK   54  A    between atoms: _124  and  _125
REMARK   55  A    between atoms: _124  and  _127
REMARK   56  A    between atoms: _127  and  _128
REMARK   57  A    between atoms: _128  and  _129
REMARK   58  A    between atoms: _131  and  _133
REMARK   59  A    between atoms: _133  and  _134
REMARK   60  A    between atoms: _133  and  _136
REMARK   61  A    between atoms: _136  and  _137
REMARK   62  A    between atoms: _140  and  _142
REMARK   63  A    between atoms: _142  and  _143
REMARK   64  A    between atoms: _145  and  _147
REMARK   65  A    between atoms: _147  and  _148
REMARK   66  A    between atoms: _150  and  _152
REMARK   67  A    between atoms: _152  and  _153
REMARK   68  A    between atoms: _152  and  _155
REMARK   69  A    between atoms: _155  and  _156
REMARK   70  A    between atoms: _159  and  _161
REMARK   71  A    between atoms: _161  and  _162
REMARK   72  A    between atoms: _164  and  _166
REMARK   73  A    between atoms: _166  and  _167
REMARK   74  A    between atoms: _169  and  _171
REMARK   75  A    between atoms: _171  and  _172
REMARK   76  A    between atoms: _171  and  _174
REMARK   77  A    between atoms: _174  and  _175
REMARK   78  A    between atoms: _181  and  _183
REMARK   79  A    between atoms: _183  and  _184
REMARK   80  A    between atoms: _183  and  _186
REMARK   81  A    between atoms: _186  and  _187
REMARK   82  A    between atoms: _190  and  _192
REMARK   83  A    between atoms: _192  and  _193
REMARK   84  A    between atoms: _192  and  _195
REMARK   85  A    between atoms: _195  and  _196
REMARK   86  A    between atoms: _199  and  _201
REMARK   87  A    between atoms: _201  and  _202
REMARK   88  A    between atoms: _201  and  _204
REMARK   89  A    between atoms: _204  and  _205
REMARK   90  A    between atoms: _209  and  _210
REMARK   91  A    between atoms: _215  and  _217
REMARK   92  A    between atoms: _217  and  _218
REMARK   93  A    between atoms: _217  and  _220
REMARK   94  A    between atoms: _223  and  _225
REMARK   95  A    between atoms: _225  and  _226
REMARK   96  A    between atoms: _225  and  _228
REMARK   97  A    between atoms: _228  and  _229
REMARK   98  A    between atoms: _234  and  _236
REMARK   99  A    between atoms: _236  and  _237
REMARK  100  A    between atoms: _236  and  _239
REMARK  101  A    between atoms: _239  and  _240
REMARK  102  A    between atoms: _243  and  _245
REMARK  103  A    between atoms: _245  and  _246
REMARK  104  A    between atoms: _245  and  _248
REMARK  105  A    between atoms: _248  and  _249
REMARK  106  A    between atoms: _252  and  _254
REMARK  107  A    between atoms: _254  and  _255
REMARK  108  A    between atoms: _257  and  _259
REMARK  109  A    between atoms: _259  and  _260
REMARK  110  A    between atoms: _259  and  _262
REMARK  111  A    between atoms: _262  and  _263
REMARK  112  A    between atoms: _263  and  _264
REMARK  113  A    between atoms: _264  and  _265
REMARK  114  A    between atoms: _274  and  _276
REMARK  115  A    between atoms: _276  and  _277
REMARK  116  A    between atoms: _276  and  _279
REMARK  117  A    between atoms: _279  and  _280
REMARK  118  A    between atoms: _280  and  _281
REMARK  119  A    between atoms: _281  and  _282
REMARK  120  A    between atoms: _291  and  _293
REMARK  121  A    between atoms: _293  and  _294
REMARK  122  A    between atoms: _293  and  _296
REMARK  123  A    between atoms: _296  and  _297
REMARK  124  A    between atoms: _300  and  _302
REMARK  125  A    between atoms: _302  and  _303
REMARK  126  A    between atoms: _302  and  _305
REMARK  127  A    between atoms: _305  and  _306
REMARK  128  A    between atoms: _309  and  _311
REMARK  129  A    between atoms: _311  and  _312
REMARK  130  A    between atoms: _311  and  _314
REMARK  131  A    between atoms: _314  and  _315
REMARK  132  A    between atoms: _318  and  _320
REMARK  133  A    between atoms: _320  and  _321
REMARK  134  A    between atoms: _320  and  _323
REMARK  135  A    between atoms: _323  and  _324
REMARK  136  A    between atoms: _327  and  _329
REMARK  137  A    between atoms: _329  and  _330
REMARK  138  A    between atoms: _329  and  _332
REMARK  139  A    between atoms: _332  and  _333
REMARK  140  A    between atoms: _336  and  _338
REMARK  141  A    between atoms: _338  and  _339
REMARK  142  A    between atoms: _341  and  _343
REMARK  143  A    between atoms: _343  and  _344
REMARK  144  A    between atoms: _347  and  _349
REMARK  145  A    between atoms: _349  and  _350
REMARK  146  A    between atoms: _349  and  _352
REMARK  147  A    between atoms: _352  and  _353
REMARK  148  A    between atoms: _356  and  _358
REMARK  149  A    between atoms: _358  and  _359
REMARK  150  A    between atoms: _358  and  _361
REMARK  151  A    between atoms: _361  and  _362
REMARK  152  A    between atoms: _365  and  _367
REMARK  153  A    between atoms: _367  and  _368
REMARK  154  A    between atoms: _367  and  _370
REMARK  155  A    between atoms: _370  and  _371
REMARK  156  A    between atoms: _374  and  _376
REMARK  157  A    between atoms: _376  and  _377
REMARK  158  A    between atoms: _376  and  _379
REMARK  159  A    between atoms: _382  and  _384
REMARK  160  A    between atoms: _384  and  _385
REMARK  161  A    between atoms: _384  and  _387
REMARK  162  A    between atoms: _387  and  _388
REMARK  163  A    between atoms: _388  and  _389
REMARK  164  A    between atoms: _389  and  _390
REMARK  165  A    between atoms: _390  and  _391
REMARK  166  A    between atoms: _395  and  _397
REMARK  167  A    between atoms: _397  and  _398
REMARK  168  A    between atoms: _397  and  _400
REMARK  169  A    between atoms: _400  and  _401
REMARK  170  A    between atoms: _401  and  _402
REMARK  171  A    between atoms: _404  and  _406
REMARK  172  A    between atoms: _406  and  _407
REMARK  173  A    between atoms: _406  and  _409
REMARK  174  A    between atoms: _409  and  _410
REMARK  175  A    between atoms: _413  and  _415
REMARK  176  A    between atoms: _415  and  _416
REMARK  177  A    between atoms: _418  and  _420
REMARK  178  A    between atoms: _420  and  _421
REMARK  179  A    between atoms: _423  and  _425
REMARK  180  A    between atoms: _425  and  _426
REMARK  181  A    between atoms: _425  and  _428
REMARK  182  A    between atoms: _428  and  _429
REMARK  183  A    between atoms: _432  and  _434
REMARK  184  A    between atoms: _434  and  _435
REMARK  185  A    between atoms: _437  and  _439
REMARK  186  A    between atoms: _439  and  _440
REMARK  187  A    between atoms: _442  and  _444
REMARK  188  A    between atoms: _444  and  _445
REMARK  189  A    between atoms: _444  and  _447
REMARK  190  A    between atoms: _447  and  _448
REMARK  191  A    between atoms: _454  and  _456
REMARK  192  A    between atoms: _456  and  _457
REMARK  193  A    between atoms: _456  and  _459
REMARK  194  A    between atoms: _459  and  _460
REMARK  195  A    between atoms: _463  and  _465
REMARK  196  A    between atoms: _465  and  _466
REMARK  197  A    between atoms: _465  and  _468
REMARK  198  A    between atoms: _471  and  _473
REMARK  199  A    between atoms: _473  and  _474
REMARK  200  A    between atoms: _473  and  _476
REMARK  201  A    between atoms: _476  and  _477
REMARK  202  A    between atoms: _480  and  _482
REMARK  203  A    between atoms: _482  and  _483
REMARK  204  A    between atoms: _482  and  _485
REMARK  205  A    between atoms: _485  and  _486
REMARK  206  A    between atoms: _490  and  _491
REMARK  207  A    between atoms: _496  and  _498
REMARK  208  A    between atoms: _498  and  _499
REMARK  209  A    between atoms: _498  and  _501
REMARK  210  A    between atoms: _504  and  _506
REMARK  211  A    between atoms: _506  and  _507
REMARK  212  A    between atoms: _506  and  _509
REMARK  213  A    between atoms: _509  and  _510
REMARK  214  A    between atoms: _515  and  _517
REMARK  215  A    between atoms: _517  and  _518
REMARK  216  A    between atoms: _517  and  _520
REMARK  217  A    between atoms: _520  and  _521
REMARK  218  A    between atoms: _524  and  _526
REMARK  219  A    between atoms: _526  and  _527
REMARK  220  A    between atoms: _526  and  _529
REMARK  221  A    between atoms: _529  and  _530
REMARK  222  A    between atoms: _533  and  _535
REMARK  223  A    between atoms: _535  and  _536
REMARK  224  A    between atoms: _538  and  _540
REMARK  225  A    between atoms: _540  and  _541
REMARK  226  A    between atoms: _540  and  _543
REMARK  227  A    between atoms: _543  and  _544
REMARK  228  A    between atoms: _544  and  _545
REMARK  229  A    between atoms: _545  and  _546
REMARK  230  A    between atoms: _555  and  _557
REMARK  231  A    between atoms: _557  and  _558
REMARK  232  A    between atoms: _557  and  _560
REMARK  233  A    between atoms: _560  and  _561
REMARK                            x       y       z     vdW  Elec       q    Type
REMARK                         _______ _______ _______ _____ _____    ______ ____
ROOT
ATOM      1  CA  LEU A   1      18.218  30.716  29.663  0.00  0.00    +0.133 C 
ENDROOT
BRANCH   1   2
ATOM      2  N   LEU A   1      17.772  31.714  28.698  0.00  0.00    -0.239 NA
ATOM      3  H   LEU A   1      18.327  32.587  28.595  0.00  0.00    +0.142 HD
ENDBRANCH   1   2
BRANCH   1   4
ATOM      4  C   LEU A   1      17.688  31.025  31.052  0.00  0.00    +0.224 C 
ATOM      5  O   LEU A   1      17.743  32.166  31.505  0.00  0.00    -0.287 OA
ENDBRANCH   1   4
BRANCH   1   6
ATOM      6  CB  LEU A   1      19.745  30.687  29.707  0.00  0.00    +0.025 C 
BRANCH   6   7
ATOM      7  CG  LEU A   1      20.463  30.341  28.402  0.00  0.00    +0.002 C 
ATOM      8  CD2 LEU A   1      21.960  30.583  28.559  0.00  0.00    +0.000 C 
ATOM      9  CD1 LEU A   1      20.183  28.895  28.040  0.00  0.00    +0.000 C 
ENDBRANCH   6   7
ENDBRANCH   1   6
TORSDOF 4
REMARK  Name = ../refined-set-2016/1mrw/1mrw_pocket.pdb
REMARK  233 active torsions:
REMARK  status: ('A' for Active; 'I' for Inactive)
REMARK    1  A    between atoms: _1  and  _3
REMARK    2  A    between atoms: _3  and  _4
REMARK    3  A    between atoms: _3  and  _6
REMARK    4  A    between atoms: _6  and  _7
REMARK    5  A    between atoms: _7  and  _8
REMARK    6  A    between atoms: _8  and  _9
REMARK    7  A    between atoms: _18  and  _20
REMARK    8  A    between atoms: _20  and  _21
REMARK    9  A    between atoms: _20  and  _23
REMARK   10  A    between atoms: _23  and  _24
REMARK   11  A    between atoms: _27  and  _29
REMARK   12  A    between atoms: _29  and  _30
REMARK   13  A    between atoms: _29  and  _32
REMARK   14  A    between atoms: _32  and  _33
REMARK   15  A    between atoms: _36  and  _38
REMARK   16  A    between atoms: _38  and  _39
REMARK   17  A    between atoms: _38  and  _41
REMARK   18  A    between atoms: _41  and  _42
REMARK   19  A    between atoms: _45  and  _47
REMARK   20  A    between atoms: _47  and  _48
REMARK   21  A    between atoms: _47  and  _50
REMARK   22  A    between atoms: _50  and  _51
REMARK   23  A    between atoms: _54  and  _56
REMARK   24  A    between atoms: _56  and  _57
REMARK   25  A    between atoms: _56  and  _59
REMARK   26  A    between atoms: _59  and  _60
REMARK   27  A    between atoms: _63  and  _65
REMARK   28  A    between atoms: _65  and  _66
REMARK   29  A    between atoms: _68  and  _70
REMARK   30  A    between atoms: _70  and  _71
REMARK   31  A    between atoms: _74  and  _76
REMARK   32  A    between atoms: _76  and  _77
REMARK   33  A    between atoms: _76  and  _79
REMARK   34  A    between atoms: _79  and  _80
REMARK   35  A    between atoms: _83  and  _85
REMARK   36  A    between atoms: _85  and  _86
REMARK   37  A    between atoms: _85  and  _88
REMARK   38  A    between atoms: _88  and  _89
REMARK   39  A    between atoms: _92  and  _94
REMARK   40  A    between atoms: _94  and  _95
REMARK   41  A    between atoms: _94  and  _97
REMARK   42  A    between atoms: _97  and  _98
REMARK   43  A    between atoms: _101  and  _103
REMARK   44  A    between atoms: _103  and  _104
REMARK   45  A    between atoms: _103  and  _106
REMARK   46  A    between atoms: _109  and  _111
REMARK   47  A    between atoms: _111  and  _112
REMARK   48  A    between atoms: _111  and  _114
REMARK   49  A    between atoms: _114  and  _115
REMARK   50  A    between atoms: _115  and  _116
REMARK   51  A    between atoms: _116  and  _117
REMARK   52  A    between atoms: _117  and  _118
REMARK   53  A    between atoms: _122  and  _124
REMARK   54  A    between atoms: _124  and  _125
REMARK   55  A    between atoms: _124  and  _127
REMARK   56  A    between atoms: _127  and  _128
REMARK   57  A    between atoms: _128  and  _129
REMARK   58  A    between atoms: _131  and  _133
REMARK   59  A    between atoms: _133  and  _134
REMARK   60  A    between atoms: _133  and  _136
REMARK   61  A    between atoms: _136  and  _137
REMARK   62  A    between atoms: _140  and  _142
REMARK   63  A    between atoms: _142  and  _143
REMARK   64  A    between atoms: _145  and  _147
REMARK   65  A    between atoms: _147  and  _148
REMARK   66  A    between atoms: _150  and  _152
REMARK   67  A    between atoms: _152  and  _153
REMARK   68  A    between atoms: _152  and  _155
REMARK   69  A    between atoms: _155  and  _156
REMARK   70  A    between atoms: _159  and  _161
REMARK   71  A    between atoms: _161  and  _162
REMARK   72  A    between atoms: _164  and  _166
REMARK   73  A    between atoms: _166  and  _167
REMARK   74  A    between atoms: _169  and  _171
REMARK   75  A    between atoms: _171  and  _172
REMARK   76  A    between atoms: _171  and  _174
REMARK   77  A    between atoms: _174  and  _175
REMARK   78  A    between atoms: _181  and  _183
REMARK   79  A    between atoms: _183  and  _184
REMARK   80  A    between atoms: _183  and  _186
REMARK   81  A    between atoms: _186  and  _187
REMARK   82  A    between atoms: _190  and  _192
REMARK   83  A    between atoms: _192  and  _193
REMARK   84  A    between atoms: _192  and  _195
REMARK   85  A    between atoms: _195  and  _196
REMARK   86  A    between atoms: _199  and  _201
REMARK   87  A    between atoms: _201  and  _202
REMARK   88  A    between atoms: _201  and  _204
REMARK   89  A    between atoms: _204  and  _205
REMARK   90  A    between atoms: _209  and  _210
REMARK   91  A    between atoms: _215  and  _217
REMARK   92  A    between atoms: _217  and  _218
REMARK   93  A    between atoms: _217  and  _220
REMARK   94  A    between atoms: _223  and  _225
REMARK   95  A    between atoms: _225  and  _226
REMARK   96  A    between atoms: _225  and  _228
REMARK   97  A    between atoms: _228  and  _229
REMARK   98  A    between atoms: _234  and  _236
REMARK   99  A    between atoms: _236  and  _237
REMARK  100  A    between atoms: _236  and  _239
REMARK  101  A    between atoms: _239  and  _240
REMARK  102  A    between atoms: _243  and  _245
REMARK  103  A    between atoms: _245  and  _246
REMARK  104  A    between atoms: _245  and  _248
REMARK  105  A    between atoms: _248  and  _249
REMARK  106  A    between atoms: _252  and  _254
REMARK  107  A    between atoms: _254  and  _255
REMARK  108  A    between atoms: _257  and  _259
REMARK  109  A    between atoms: _259  and  _260
REMARK  110  A    between atoms: _259  and  _262
REMARK  111  A    between atoms: _262  and  _263
REMARK  112  A    between atoms: _263  and  _264
REMARK  113  A    between atoms: _264  and  _265
REMARK  114  A    between atoms: _274  and  _276
REMARK  115  A    between atoms: _276  and  _277
REMARK  116  A    between atoms: _276  and  _279
REMARK  117  A    between atoms: _279  and  _280
REMARK  118  A    between atoms: _280  and  _281
REMARK  119  A    between atoms: _281  and  _282
REMARK  120  A    between atoms: _291  and  _293
REMARK  121  A    between atoms: _293  and  _294
REMARK  122  A    between atoms: _293  and  _296
REMARK  123  A    between atoms: _296  and  _297
REMARK  124  A    between atoms: _300  and  _302
REMARK  125  A    between atoms: _302  and  _303
REMARK  126  A    between atoms: _302  and  _305
REMARK  127  A    between atoms: _305  and  _306
REMARK  128  A    between atoms: _309  and  _311
REMARK  129  A    between atoms: _311  and  _312
REMARK  130  A    between atoms: _311  and  _314
REMARK  131  A    between atoms: _314  and  _315
REMARK  132  A    between atoms: _318  and  _320
REMARK  133  A    between atoms: _320  and  _321
REMARK  134  A    between atoms: _320  and  _323
REMARK  135  A    between atoms: _323  and  _324
REMARK  136  A    between atoms: _327  and  _329
REMARK  137  A    between atoms: _329  and  _330
REMARK  138  A    between atoms: _329  and  _332
REMARK  139  A    between atoms: _332  and  _333
REMARK  140  A    between atoms: _336  and  _338
REMARK  141  A    between atoms: _338  and  _339
REMARK  142  A    between atoms: _341  and  _343
REMARK  143  A    between atoms: _343  and  _344
REMARK  144  A    between atoms: _347  and  _349
REMARK  145  A    between atoms: _349  and  _350
REMARK  146  A    between atoms: _349  and  _352
REMARK  147  A    between atoms: _352  and  _353
REMARK  148  A    between atoms: _356  and  _358
REMARK  149  A    between atoms: _358  and  _359
REMARK  150  A    between atoms: _358  and  _361
REMARK  151  A    between atoms: _361  and  _362
REMARK  152  A    between atoms: _365  and  _367
REMARK  153  A    between atoms: _367  and  _368
REMARK  154  A    between atoms: _367  and  _370
REMARK  155  A    between atoms: _370  and  _371
REMARK  156  A    between atoms: _374  and  _376
REMARK  157  A    between atoms: _376  and  _377
REMARK  158  A    between atoms: _376  and  _379
REMARK  159  A    between atoms: _382  and  _384
REMARK  160  A    between atoms: _384  and  _385
REMARK  161  A    between atoms: _384  and  _387
REMARK  162  A    between atoms: _387  and  _388
REMARK  163  A    between atoms: _388  and  _389
REMARK  164  A    between atoms: _389  and  _390
REMARK  165  A    between atoms: _390  and  _391
REMARK  166  A    between atoms: _395  and  _397
REMARK  167  A    between atoms: _397  and  _398
REMARK  168  A    between atoms: _397  and  _400
REMARK  169  A    between atoms: _400  and  _401
REMARK  170  A    between atoms: _401  and  _402
REMARK  171  A    between atoms: _404  and  _406
REMARK  172  A    between atoms: _406  and  _407
REMARK  173  A    between atoms: _406  and  _409
REMARK  174  A    between atoms: _409  and  _410
REMARK  175  A    between atoms: _413  and  _415
REMARK  176  A    between atoms: _415  and  _416
REMARK  177  A    between atoms: _418  and  _420
REMARK  178  A    between atoms: _420  and  _421
REMARK  179  A    between atoms: _423  and  _425
REMARK  180  A    between atoms: _425  and  _426
REMARK  181  A    between atoms: _425  and  _428
REMARK  182  A    between atoms: _428  and  _429
REMARK  183  A    between atoms: _432  and  _434
REMARK  184  A    between atoms: _434  and  _435
REMARK  185  A    between atoms: _437  and  _439
REMARK  186  A    between atoms: _439  and  _440
REMARK  187  A    between atoms: _442  and  _444
REMARK  188  A    between atoms: _444  and  _445
REMARK  189  A    between atoms: _444  and  _447
REMARK  190  A    between atoms: _447  and  _448
REMARK  191  A    between atoms: _454  and  _456
REMARK  192  A    between atoms: _456  and  _457
REMARK  193  A    between atoms: _456  and  _459
REMARK  194  A    between atoms: _459  and  _460
REMARK  195  A    between atoms: _463  and  _465
REMARK  196  A    between atoms: _465  and  _466
REMARK  197  A    between atoms: _465  and  _468
REMARK  198  A    between atoms: _471  and  _473
REMARK  199  A    between atoms: _473  and  _474
REMARK  200  A    between atoms: _473  and  _476
REMARK  201  A    between atoms: _476  and  _477
REMARK  202  A    between atoms: _480  and  _482
REMARK  203  A    between atoms: _482  and  _483
REMARK  204  A    between atoms: _482  and  _485
REMARK  205  A    between atoms: _485  and  _486
REMARK  206  A    between atoms: _490  and  _491
REMARK  207  A    between atoms: _496  and  _498
REMARK  208  A    between atoms: _498  and  _499
REMARK  209  A    between atoms: _498  and  _501
REMARK  210  A    between atoms: _504  and  _506
REMARK  211  A    between atoms: _506  and  _507
REMARK  212  A    between atoms: _506  and  _509
REMARK  213  A    between atoms: _509  and  _510
REMARK  214  A    between atoms: _515  and  _517
REMARK  215  A    between atoms: _517  and  _518
REMARK  216  A    between atoms: _517  and  _520
REMARK  217  A    between atoms: _520  and  _521
REMARK  218  A    between atoms: _524  and  _526
REMARK  219  A    between atoms: _526  and  _527
REMARK  220  A    between atoms: _526  and  _529
REMARK  221  A    between atoms: _529  and  _530
REMARK  222  A    between atoms: _533  and  _535
REMARK  223  A    between atoms: _535  and  _536
REMARK  224  A    between atoms: _538  and  _540
REMARK  225  A    between atoms: _540  and  _541
REMARK  226  A    between atoms: _540  and  _543
REMARK  227  A    between atoms: _543  and  _544
REMARK  228  A    between atoms: _544  and  _545
REMARK  229  A    between atoms: _545  and  _546
REMARK  230  A    between atoms: _555  and  _557
REMARK  231  A    between atoms: _557  and  _558
REMARK  232  A    between atoms: _557  and  _560
REMARK  233  A    between atoms: _560  and  _561
REMARK                            x       y       z     vdW  Elec       q    Type
REMARK                         _______ _______ _______ _____ _____    ______ ____
ROOT
ATOM      1  C   GLY A   5      11.063  23.741  18.902  0.00  0.00    +0.243 C 
ATOM      2  N   ALA A   6      11.063  23.411  20.191  0.00  0.00    -0.297 N 
ATOM      3  H   ALA A   6      10.988  24.165  20.904  0.00  0.00    +0.150 HD
ATOM      4  O   GLY A   5      11.148  22.907  17.996  0.00  0.00    -0.273 OA
ENDROOT
BRANCH   2   5
ATOM      5  CA  ALA A   6      11.165  22.022  20.638  0.00  0.00    +0.149 C 
ATOM      6  CB  ALA A   6      12.225  21.907  21.732  0.00  0.00    +0.031 C 
BRANCH   5   7
ATOM      7  C   ALA A   6       9.822  21.518  21.157  0.00  0.00    +0.241 C 
ATOM      8  O   ALA A   6       9.204  22.154  22.012  0.00  0.00    -0.273 OA
ATOM      9  N   ASP A   7       9.362  20.381  20.641  0.00  0.00    -0.297 N 
ATOM     10  H   ASP A   7       9.918  19.879  19.920  0.00  0.00    +0.150 HD
BRANCH   9  11
ATOM     11  CA  ASP A   7       8.078  19.833  21.083  0.00  0.00    +0.160 C 
BRANCH  11  12
ATOM     12  C   ASP A   7       8.194  19.285  22.493  0.00  0.00    +0.241 C 
ATOM     13  O   ASP A   7       7.240  19.326  23.269  0.00  0.00    -0.273 OA
ATOM     14  N   ASP A   8       9.376  18.770  22.810  0.00  0.00    -0.297 N 
ATOM     15  H   ASP A   8      10.148  18.810  22.114  0.00  0.00    +0.150 HD
BRANCH  14  16
ATOM     16  CA  ASP A   8       9.622  18.153  24.100  0.00  0.00    +0.160 C 
BRANCH  16  17
ATOM     17  C   ASP A   8      10.693  18.853  24.919  0.00  0.00    +0.241 C 
ATOM     18  N   THR A   9      10.847  18.368  26.149  0.00  0.00    -0.295 N 
ATOM     19  H   THR A   9      10.223  17.594  26.452  0.00  0.00    +0.150 HD
ATOM     20  O   ASP A   8      11.350  19.794  24.453  0.00  0.00    -0.273 OA
BRANCH  18  21
ATOM     21  CA  THR A   9      11.840  18.860  27.094  0.00  0.00    +0.176 C 
BRANCH  21  22
ATOM     22  C   THR A   9      12.924  17.779  27.129  0.00  0.00    +0.243 C 
ATOM     23  O   THR A   9      12.649  16.598  27.384  0.00  0.00    -0.273 OA
ATOM     24  N   VAL A  10      14.154  18.188  26.848  0.00  0.00    -0.298 N 
ATOM     25  H   VAL A  10      14.319  19.196  26.654  0.00  0.00    +0.150 HD
BRANCH  24  26
ATOM     26  CA  VAL A  10      15.277  17.267  26.803  0.00  0.00    +0.137 C 
BRANCH  26  27
ATOM     27  CB  VAL A  10      15.878  17.212  25.380  0.00  0.00    +0.026 C 
ATOM     28  CG2 VAL A  10      16.861  16.059  25.271  0.00  0.00    +0.002 C 
ATOM     29  CG1 VAL A  10      14.762  17.074  24.352  0.00  0.00    +0.002 C 
ENDBRANCH  26  27
BRANCH  26  30
ATOM     30  C   VAL A  10      16.341  17.730  27.780  0.00  0.00    +0.227 C 
ATOM     31  O   VAL A  10      16.835  18.860  27.693  0.00  0.00    -0.286 OA
ENDBRANCH  26  30
ENDBRANCH  24  26
ENDBRANCH  21  22
BRANCH  21  32
ATOM     32  CB  THR A   9      11.219  19.044  28.501  0.00  0.00    +0.137 C 
ATOM     33  CG2 THR A   9      12.305  19.374  29.542  0.00  0.00    +0.034 C 
BRANCH  32  34
ATOM     34  OG1 THR A   9      10.251  20.103  28.454  0.00  0.00    -0.382 OA
ATOM     35  HG1 THR A   9       9.541  19.871  27.804  0.00  0.00    +0.210 HD
ENDBRANCH  32  34
ENDBRANCH  21  32
ENDBRANCH  18  21
ENDBRANCH  16  17
BRANCH  16  36
ATOM     36  CB  ASP A   8      10.042  16.696  23.883  0.00  0.00    +0.143 C 
BRANCH  36  37
ATOM     37  CG  ASP A   8       9.225  16.007  22.800  0.00  0.00    +0.367 C 
ATOM     38  OD2 ASP A   8       8.054  15.670  23.056  0.00  0.00    -0.246 OA
ATOM     39  OD1 ASP A   8       9.754  15.812  21.687  0.00  0.00    -0.246 OA
ENDBRANCH  36  37
ENDBRANCH  16  36
ENDBRANCH  14  16
ENDBRANCH  11  12
BRANCH  11  40
ATOM     40  CB  ASP A   7       7.611  18.680  20.189  0.00  0.00    +0.143 C 
BRANCH  40  41
ATOM     41  CG  ASP A   7       7.561  19.047  18.724  0.00  0.00    +0.367 C 
ATOM     42  OD2 ASP A   7       7.353  20.235  18.398  0.00  0.00    -0.246 OA
ATOM     43  OD1 ASP A   7       7.717  18.125  17.895  0.00  0.00    -0.246 OA
ENDBRANCH  40  41
ENDBRANCH  11  40
ENDBRANCH   9  11
ENDBRANCH   5   7
ENDBRANCH   2   5
BRANCH   1  44
ATOM     44  CA  GLY A   5      10.960  25.227  18.581  0.00  0.00    +0.176 C 
BRANCH  44  46
ATOM     45  C   THR A   4       9.600  26.347  20.223  0.00  0.00    +0.243 C 
ATOM     46  N   GLY A   5      10.811  26.056  19.766  0.00  0.00    -0.295 N 
ATOM     47  H   GLY A   5      11.653  26.421  20.255  0.00  0.00    +0.150 HD
ATOM     48  O   THR A   4       8.573  25.950  19.673  0.00  0.00    -0.273 OA
BRANCH  45  49
ATOM     49  CA  THR A   4       9.519  27.219  21.474  0.00  0.00    +0.176 C 
BRANCH  49  52
ATOM     50  C   ASP A   3      11.386  26.346  22.767  0.00  0.00    +0.241 C 
ATOM     51  O   ASP A   3      10.898  25.215  22.773  0.00  0.00    -0.273 OA
ATOM     52  N   THR A   4      10.804  27.376  22.157  0.00  0.00    -0.295 N 
ATOM     53  H   THR A   4      11.269  28.306  22.166  0.00  0.00    +0.150 HD
BRANCH  50  54
ATOM     54  CA  ASP A   3      12.732  26.607  23.445  0.00  0.00    +0.160 C 
BRANCH  54  56
ATOM     55  C   LEU A   2      13.107  28.048  25.378  0.00  0.00    +0.241 C 
ATOM     56  N   ASP A   3      12.719  26.880  24.879  0.00  0.00    -0.297 N 
ATOM     57  H   ASP A   3      12.396  26.136  25.530  0.00  0.00    +0.150 HD
ATOM     58  O   LEU A   2      13.401  29.017  24.678  0.00  0.00    -0.273 OA
BRANCH  55  59
ATOM     59  CA  LEU A   2      13.161  28.132  26.899  0.00  0.00    +0.149 C 
BRANCH  59  61
ATOM     60  C   LEU A   1      15.279  26.961  27.162  0.00  0.00    +0.238 C 
ATOM     61  N   LEU A   2      14.597  28.106  27.187  0.00  0.00    -0.297 N 
ATOM     62  H   LEU A   2      15.091  28.993  27.414  0.00  0.00    +0.150 HD
ATOM     63  O   LEU A   1      14.744  25.869  26.946  0.00  0.00    -0.274 OA
BRANCH  60  64
ATOM     64  CA  LEU A   1      16.786  27.048  27.423  0.00  0.00    +0.145 C 
BRANCH  64  65
ATOM     65  N   LEU A   1      17.243  26.145  28.473  0.00  0.00    -0.238 NA
ATOM     66  H   LEU A   1      17.370  25.139  28.241  0.00  0.00    +0.142 HD
ENDBRANCH  64  65
BRANCH  64  67
ATOM     67  CB  LEU A   1      17.541  26.721  26.129  0.00  0.00    +0.026 C 
BRANCH  67  68
ATOM     68  CG  LEU A   1      17.236  27.452  24.818  0.00  0.00    +0.002 C 
ATOM     69  CD2 LEU A   1      17.578  28.938  24.928  0.00  0.00    +0.000 C 
ATOM     70  CD1 LEU A   1      18.058  26.810  23.714  0.00  0.00    +0.000 C 
ENDBRANCH  67  68
ENDBRANCH  64  67
ENDBRANCH  60  64
ENDBRANCH  59  61
BRANCH  59  71
ATOM     71  CB  LEU A   2      12.531  29.429  27.413  0.00  0.00    +0.029 C 
BRANCH  71  72
ATOM     72  CG  LEU A   2      12.625  29.606  28.938  0.00  0.00    +0.002 C 
ATOM     73  CD2 LEU A   2      12.101  28.360  29.638  0.00  0.00    +0.000 C 
ATOM     74  CD1 LEU A   2      11.812  30.818  29.370  0.00  0.00    +0.000 C 
ENDBRANCH  71  72
ENDBRANCH  59  71
ENDBRANCH  55  59
ENDBRANCH  54  56
BRANCH  54  75
ATOM     75  CB  ASP A   3      13.652  25.405  23.225  0.00  0.00    +0.143 C 
BRANCH  75  76
ATOM     76  CG  ASP A   3      13.993  25.181  21.773  0.00  0.00    +0.367 C 
ATOM     77  OD2 ASP A   3      14.932  24.396  21.510  0.00  0.00    -0.246 OA
ATOM     78  OD1 ASP A   3      13.326  25.779  20.906  0.00  0.00    -0.246 OA
ENDBRANCH  75  76
ENDBRANCH  54  75
ENDBRANCH  50  54
ENDBRANCH  49  52
BRANCH  49  79
ATOM     79  CB  THR A   4       8.925  28.573  21.051  0.00  0.00    +0.137 C 
ATOM     80  CG2 THR A   4       8.650  29.436  22.276  0.00  0.00    +0.034 C 
BRANCH  79  81
ATOM     81  OG1 THR A   4       9.841  29.244  20.170  0.00  0.00    -0.382 OA
ATOM     82  HG1 THR A   4       9.994  28.685  19.367  0.00  0.00    +0.210 HD
ENDBRANCH  79  81
ENDBRANCH  49  79
ENDBRANCH  45  49
ENDBRANCH  44  46
ENDBRANCH   1  44
TORSDOF 35
REMARK  Name = ../refined-set-2016/1mrw/1mrw_pocket.pdb
REMARK  233 active torsions:
REMARK  status: ('A' for Active; 'I' for Inactive)
REMARK    1  A    between atoms: _1  and  _3
REMARK    2  A    between atoms: _3  and  _4
REMARK    3  A    between atoms: _3  and  _6
REMARK    4  A    between atoms: _6  and  _7
REMARK    5  A    between atoms: _7  and  _8
REMARK    6  A    between atoms: _8  and  _9
REMARK    7  A    between atoms: _18  and  _20
REMARK    8  A    between atoms: _20  and  _21
REMARK    9  A    between atoms: _20  and  _23
REMARK   10  A    between atoms: _23  and  _24
REMARK   11  A    between atoms: _27  and  _29
REMARK   12  A    between atoms: _29  and  _30
REMARK   13  A    between atoms: _29  and  _32
REMARK   14  A    between atoms: _32  and  _33
REMARK   15  A    between atoms: _36  and  _38
REMARK   16  A    between atoms: _38  and  _39
REMARK   17  A    between atoms: _38  and  _41
REMARK   18  A    between atoms: _41  and  _42
REMARK   19  A    between atoms: _45  and  _47
REMARK   20  A    between atoms: _47  and  _48
REMARK   21  A    between atoms: _47  and  _50
REMARK   22  A    between atoms: _50  and  _51
REMARK   23  A    between atoms: _54  and  _56
REMARK   24  A    between atoms: _56  and  _57
REMARK   25  A    between atoms: _56  and  _59
REMARK   26  A    between atoms: _59  and  _60
REMARK   27  A    between atoms: _63  and  _65
REMARK   28  A    between atoms: _65  and  _66
REMARK   29  A    between atoms: _68  and  _70
REMARK   30  A    between atoms: _70  and  _71
REMARK   31  A    between atoms: _74  and  _76
REMARK   32  A    between atoms: _76  and  _77
REMARK   33  A    between atoms: _76  and  _79
REMARK   34  A    between atoms: _79  and  _80
REMARK   35  A    between atoms: _83  and  _85
REMARK   36  A    between atoms: _85  and  _86
REMARK   37  A    between atoms: _85  and  _88
REMARK   38  A    between atoms: _88  and  _89
REMARK   39  A    between atoms: _92  and  _94
REMARK   40  A    between atoms: _94  and  _95
REMARK   41  A    between atoms: _94  and  _97
REMARK   42  A    between atoms: _97  and  _98
REMARK   43  A    between atoms: _101  and  _103
REMARK   44  A    between atoms: _103  and  _104
REMARK   45  A    between atoms: _103  and  _106
REMARK   46  A    between atoms: _109  and  _111
REMARK   47  A    between atoms: _111  and  _112
REMARK   48  A    between atoms: _111  and  _114
REMARK   49  A    between atoms: _114  and  _115
REMARK   50  A    between atoms: _115  and  _116
REMARK   51  A    between atoms: _116  and  _117
REMARK   52  A    between atoms: _117  and  _118
REMARK   53  A    between atoms: _122  and  _124
REMARK   54  A    between atoms: _124  and  _125
REMARK   55  A    between atoms: _124  and  _127
REMARK   56  A    between atoms: _127  and  _128
REMARK   57  A    between atoms: _128  and  _129
REMARK   58  A    between atoms: _131  and  _133
REMARK   59  A    between atoms: _133  and  _134
REMARK   60  A    between atoms: _133  and  _136
REMARK   61  A    between atoms: _136  and  _137
REMARK   62  A    between atoms: _140  and  _142
REMARK   63  A    between atoms: _142  and  _143
REMARK   64  A    between atoms: _145  and  _147
REMARK   65  A    between atoms: _147  and  _148
REMARK   66  A    between atoms: _150  and  _152
REMARK   67  A    between atoms: _152  and  _153
REMARK   68  A    between atoms: _152  and  _155
REMARK   69  A    between atoms: _155  and  _156
REMARK   70  A    between atoms: _159  and  _161
REMARK   71  A    between atoms: _161  and  _162
REMARK   72  A    between atoms: _164  and  _166
REMARK   73  A    between atoms: _166  and  _167
REMARK   74  A    between atoms: _169  and  _171
REMARK   75  A    between atoms: _171  and  _172
REMARK   76  A    between atoms: _171  and  _174
REMARK   77  A    between atoms: _174  and  _175
REMARK   78  A    between atoms: _181  and  _183
REMARK   79  A    between atoms: _183  and  _184
REMARK   80  A    between atoms: _183  and  _186
REMARK   81  A    between atoms: _186  and  _187
REMARK   82  A    between atoms: _190  and  _192
REMARK   83  A    between atoms: _192  and  _193
REMARK   84  A    between atoms: _192  and  _195
REMARK   85  A    between atoms: _195  and  _196
REMARK   86  A    between atoms: _199  and  _201
REMARK   87  A    between atoms: _201  and  _202
REMARK   88  A    between atoms: _201  and  _204
REMARK   89  A    between atoms: _204  and  _205
REMARK   90  A    between atoms: _209  and  _210
REMARK   91  A    between atoms: _215  and  _217
REMARK   92  A    between atoms: _217  and  _218
REMARK   93  A    between atoms: _217  and  _220
REMARK   94  A    between atoms: _223  and  _225
REMARK   95  A    between atoms: _225  and  _226
REMARK   96  A    between atoms: _225  and  _228
REMARK   97  A    between atoms: _228  and  _229
REMARK   98  A    between atoms: _234  and  _236
REMARK   99  A    between atoms: _236  and  _237
REMARK  100  A    between atoms: _236  and  _239
REMARK  101  A    between atoms: _239  and  _240
REMARK  102  A    between atoms: _243  and  _245
REMARK  103  A    between atoms: _245  and  _246
REMARK  104  A    between atoms: _245  and  _248
REMARK  105  A    between atoms: _248  and  _249
REMARK  106  A    between atoms: _252  and  _254
REMARK  107  A    between atoms: _254  and  _255
REMARK  108  A    between atoms: _257  and  _259
REMARK  109  A    between atoms: _259  and  _260
REMARK  110  A    between atoms: _259  and  _262
REMARK  111  A    between atoms: _262  and  _263
REMARK  112  A    between atoms: _263  and  _264
REMARK  113  A    between atoms: _264  and  _265
REMARK  114  A    between atoms: _274  and  _276
REMARK  115  A    between atoms: _276  and  _277
REMARK  116  A    between atoms: _276  and  _279
REMARK  117  A    between atoms: _279  and  _280
REMARK  118  A    between atoms: _280  and  _281
REMARK  119  A    between atoms: _281  and  _282
REMARK  120  A    between atoms: _291  and  _293
REMARK  121  A    between atoms: _293  and  _294
REMARK  122  A    between atoms: _293  and  _296
REMARK  123  A    between atoms: _296  and  _297
REMARK  124  A    between atoms: _300  and  _302
REMARK  125  A    between atoms: _302  and  _303
REMARK  126  A    between atoms: _302  and  _305
REMARK  127  A    between atoms: _305  and  _306
REMARK  128  A    between atoms: _309  and  _311
REMARK  129  A    between atoms: _311  and  _312
REMARK  130  A    between atoms: _311  and  _314
REMARK  131  A    between atoms: _314  and  _315
REMARK  132  A    between atoms: _318  and  _320
REMARK  133  A    between atoms: _320  and  _321
REMARK  134  A    between atoms: _320  and  _323
REMARK  135  A    between atoms: _323  and  _324
REMARK  136  A    between atoms: _327  and  _329
REMARK  137  A    between atoms: _329  and  _330
REMARK  138  A    between atoms: _329  and  _332
REMARK  139  A    between atoms: _332  and  _333
REMARK  140  A    between atoms: _336  and  _338
REMARK  141  A    between atoms: _338  and  _339
REMARK  142  A    between atoms: _341  and  _343
REMARK  143  A    between atoms: _343  and  _344
REMARK  144  A    between atoms: _347  and  _349
REMARK  145  A    between atoms: _349  and  _350
REMARK  146  A    between atoms: _349  and  _352
REMARK  147  A    between atoms: _352  and  _353
REMARK  148  A    between atoms: _356  and  _358
REMARK  149  A    between atoms: _358  and  _359
REMARK  150  A    between atoms: _358  and  _361
REMARK  151  A    between atoms: _361  and  _362
REMARK  152  A    between atoms: _365  and  _367
REMARK  153  A    between atoms: _367  and  _368
REMARK  154  A    between atoms: _367  and  _370
REMARK  155  A    between atoms: _370  and  _371
REMARK  156  A    between atoms: _374  and  _376
REMARK  157  A    between atoms: _376  and  _377
REMARK  158  A    between atoms: _376  and  _379
REMARK  159  A    between atoms: _382  and  _384
REMARK  160  A    between atoms: _384  and  _385
REMARK  161  A    between atoms: _384  and  _387
REMARK  162  A    between atoms: _387  and  _388
REMARK  163  A    between atoms: _388  and  _389
REMARK  164  A    between atoms: _389  and  _390
REMARK  165  A    between atoms: _390  and  _391
REMARK  166  A    between atoms: _395  and  _397
REMARK  167  A    between atoms: _397  and  _398
REMARK  168  A    between atoms: _397  and  _400
REMARK  169  A    between atoms: _400  and  _401
REMARK  170  A    between atoms: _401  and  _402
REMARK  171  A    between atoms: _404  and  _406
REMARK  172  A    between atoms: _406  and  _407
REMARK  173  A    between atoms: _406  and  _409
REMARK  174  A    between atoms: _409  and  _410
REMARK  175  A    between atoms: _413  and  _415
REMARK  176  A    between atoms: _415  and  _416
REMARK  177  A    between atoms: _418  and  _420
REMARK  178  A    between atoms: _420  and  _421
REMARK  179  A    between atoms: _423  and  _425
REMARK  180  A    between atoms: _425  and  _426
REMARK  181  A    between atoms: _425  and  _428
REMARK  182  A    between atoms: _428  and  _429
REMARK  183  A    between atoms: _432  and  _434
REMARK  184  A    between atoms: _434  and  _435
REMARK  185  A    between atoms: _437  and  _439
REMARK  186  A    between atoms: _439  and  _440
REMARK  187  A    between atoms: _442  and  _444
REMARK  188  A    between atoms: _444  and  _445
REMARK  189  A    between atoms: _444  and  _447
REMARK  190  A    between atoms: _447  and  _448
REMARK  191  A    between atoms: _454  and  _456
REMARK  192  A    between atoms: _456  and  _457
REMARK  193  A    between atoms: _456  and  _459
REMARK  194  A    between atoms: _459  and  _460
REMARK  195  A    between atoms: _463  and  _465
REMARK  196  A    between atoms: _465  and  _466
REMARK  197  A    between atoms: _465  and  _468
REMARK  198  A    between atoms: _471  and  _473
REMARK  199  A    between atoms: _473  and  _474
REMARK  200  A    between atoms: _473  and  _476
REMARK  201  A    between atoms: _476  and  _477
REMARK  202  A    between atoms: _480  and  _482
REMARK  203  A    between atoms: _482  and  _483
REMARK  204  A    between atoms: _482  and  _485
REMARK  205  A    between atoms: _485  and  _486
REMARK  206  A    between atoms: _490  and  _491
REMARK  207  A    between atoms: _496  and  _498
REMARK  208  A    between atoms: _498  and  _499
REMARK  209  A    between atoms: _498  and  _501
REMARK  210  A    between atoms: _504  and  _506
REMARK  211  A    between atoms: _506  and  _507
REMARK  212  A    between atoms: _506  and  _509
REMARK  213  A    between atoms: _509  and  _510
REMARK  214  A    between atoms: _515  and  _517
REMARK  215  A    between atoms: _517  and  _518
REMARK  216  A    between atoms: _517  and  _520
REMARK  217  A    between atoms: _520  and  _521
REMARK  218  A    between atoms: _524  and  _526
REMARK  219  A    between atoms: _526  and  _527
REMARK  220  A    between atoms: _526  and  _529
REMARK  221  A    between atoms: _529  and  _530
REMARK  222  A    between atoms: _533  and  _535
REMARK  223  A    between atoms: _535  and  _536
REMARK  224  A    between atoms: _538  and  _540
REMARK  225  A    between atoms: _540  and  _541
REMARK  226  A    between atoms: _540  and  _543
REMARK  227  A    between atoms: _543  and  _544
REMARK  228  A    between atoms: _544  and  _545
REMARK  229  A    between atoms: _545  and  _546
REMARK  230  A    between atoms: _555  and  _557
REMARK  231  A    between atoms: _557  and  _558
REMARK  232  A    between atoms: _557  and  _560
REMARK  233  A    between atoms: _560  and  _561
REMARK                            x       y       z     vdW  Elec       q    Type
REMARK                         _______ _______ _______ _____ _____    ______ ____
ROOT
ATOM      1  C   GLY A   5      17.086  18.342  14.208  0.00  0.00    +0.243 C 
ATOM      2  N   ILE A   6      17.832  19.434  14.335  0.00  0.00    -0.297 N 
ATOM      3  H   ILE A   6      17.949  19.858  15.277  0.00  0.00    +0.150 HD
ATOM      4  O   GLY A   5      16.919  17.766  13.128  0.00  0.00    -0.273 OA
ENDROOT
BRANCH   2   5
ATOM      5  CA  ILE A   6      18.490  20.054  13.194  0.00  0.00    +0.149 C 
BRANCH   5   6
ATOM      6  C   ILE A   6      19.401  19.110  12.406  0.00  0.00    +0.241 C 
ATOM      7  N   GLY A   7      20.022  18.156  13.086  0.00  0.00    -0.295 N 
ATOM      8  H   GLY A   7      19.870  18.063  14.111  0.00  0.00    +0.150 HD
ATOM      9  O   ILE A   6      19.535  19.242  11.193  0.00  0.00    -0.273 OA
BRANCH   7  10
ATOM     10  CA  GLY A   7      20.916  17.241  12.396  0.00  0.00    +0.176 C 
BRANCH  10  11
ATOM     11  C   GLY A   7      20.372  15.845  12.154  0.00  0.00    +0.243 C 
ATOM     12  N   GLY A   8      19.127  15.602  12.548  0.00  0.00    -0.295 N 
ATOM     13  H   GLY A   8      18.569  16.356  12.997  0.00  0.00    +0.150 HD
ATOM     14  O   GLY A   7      21.076  14.994  11.610  0.00  0.00    -0.273 OA
BRANCH  12  15
ATOM     15  CA  GLY A   8      18.543  14.287  12.354  0.00  0.00    +0.176 C 
BRANCH  15  16
ATOM     16  C   GLY A   8      17.855  13.774  13.606  0.00  0.00    +0.243 C 
ATOM     17  O   GLY A   8      17.692  14.513  14.575  0.00  0.00    -0.273 OA
ATOM     18  N   PHE A   9      17.455  12.505  13.582  0.00  0.00    -0.297 N 
ATOM     19  H   PHE A   9      17.634  11.941  12.727  0.00  0.00    +0.150 HD
BRANCH  18  20
ATOM     20  CA  PHE A   9      16.774  11.874  14.710  0.00  0.00    +0.153 C 
BRANCH  20  21
ATOM     21  C   PHE A   9      17.736  11.153  15.653  0.00  0.00    +0.241 C 
ATOM     22  N   ILE A  10      17.418  11.170  16.947  0.00  0.00    -0.298 N 
ATOM     23  H   ILE A  10      16.562  11.679  17.246  0.00  0.00    +0.150 HD
ATOM     24  O   PHE A   9      18.735  10.586  15.213  0.00  0.00    -0.273 OA
BRANCH  22  25
ATOM     25  CA  ILE A  10      18.230  10.499  17.963  0.00  0.00    +0.137 C 
BRANCH  25  26
ATOM     26  C   ILE A  10      17.327   9.732  18.932  0.00  0.00    +0.227 C 
ATOM     27  O   ILE A  10      16.111   9.915  18.929  0.00  0.00    -0.286 OA
ENDBRANCH  25  26
BRANCH  25  28
ATOM     28  CB  ILE A  10      19.064  11.497  18.790  0.00  0.00    +0.026 C 
ATOM     29  CG2 ILE A  10      19.951  12.319  17.869  0.00  0.00    +0.002 C 
BRANCH  28  30
ATOM     30  CG1 ILE A  10      18.136  12.402  19.604  0.00  0.00    +0.002 C 
ATOM     31  CD1 ILE A  10      18.834  13.166  20.704  0.00  0.00    +0.000 C 
ENDBRANCH  28  30
ENDBRANCH  25  28
ENDBRANCH  22  25
ENDBRANCH  20  21
BRANCH  20  32
ATOM     32  CB  PHE A   9      15.737  10.862  14.204  0.00  0.00    +0.055 C 
BRANCH  32  33
ATOM     33  CG  PHE A   9      14.576  11.485  13.490  0.00  0.00    -0.020 A 
ATOM     34  CD2 PHE A   9      13.331  11.568  14.109  0.00  0.00    -0.004 A 
ATOM     35  CE2 PHE A   9      12.251  12.174  13.466  0.00  0.00    -0.000 A 
ATOM     36  CZ  PHE A   9      12.415  12.702  12.187  0.00  0.00    -0.000 A 
ATOM     37  CE1 PHE A   9      13.658  12.620  11.558  0.00  0.00    -0.000 A 
ATOM     38  CD1 PHE A   9      14.728  12.014  12.211  0.00  0.00    -0.004 A 
ENDBRANCH  32  33
ENDBRANCH  20  32
ENDBRANCH  18  20
ENDBRANCH  15  16
ENDBRANCH  12  15
ENDBRANCH  10  11
ENDBRANCH   7  10
ENDBRANCH   5   6
BRANCH   5  39
ATOM     39  CB  ILE A   6      19.316  21.289  13.637  0.00  0.00    +0.027 C 
ATOM     40  CG2 ILE A   6      20.485  20.858  14.511  0.00  0.00    +0.002 C 
BRANCH  39  41
ATOM     41  CG1 ILE A   6      19.812  22.043  12.405  0.00  0.00    +0.002 C 
ATOM     42  CD1 ILE A   6      18.698  22.695  11.600  0.00  0.00    +0.000 C 
ENDBRANCH  39  41
ENDBRANCH   5  39
ENDBRANCH   2   5
BRANCH   1  43
ATOM     43  CA  GLY A   5      16.447  17.818  15.483  0.00  0.00    +0.176 C 
BRANCH  43  46
ATOM     44  C   GLY A   4      14.612  16.232  15.395  0.00  0.00    +0.243 C 
ATOM     45  O   GLY A   4      13.765  17.098  15.619  0.00  0.00    -0.273 OA
ATOM     46  N   GLY A   5      15.917  16.479  15.316  0.00  0.00    -0.295 N 
ATOM     47  H   GLY A   5      16.572  15.693  15.130  0.00  0.00    +0.150 HD
BRANCH  44  48
ATOM     48  CA  GLY A   4      14.197  14.790  15.198  0.00  0.00    +0.176 C 
BRANCH  48  51
ATOM     49  C   ILE A   3      13.998  13.484  17.216  0.00  0.00    +0.241 C 
ATOM     50  O   ILE A   3      15.182  13.147  17.157  0.00  0.00    -0.273 OA
ATOM     51  N   GLY A   4      13.426  14.279  16.318  0.00  0.00    -0.295 N 
ATOM     52  H   GLY A   4      12.423  14.536  16.417  0.00  0.00    +0.150 HD
BRANCH  49  53
ATOM     53  CA  ILE A   3      13.106  12.986  18.346  0.00  0.00    +0.149 C 
BRANCH  53  55
ATOM     54  C   MET A   2      12.467  10.655  18.516  0.00  0.00    +0.241 C 
ATOM     55  N   ILE A   3      13.413  11.583  18.601  0.00  0.00    -0.297 N 
ATOM     56  H   ILE A   3      14.384  11.306  18.852  0.00  0.00    +0.150 HD
ATOM     57  O   MET A   2      11.296  10.923  18.269  0.00  0.00    -0.273 OA
BRANCH  54  58
ATOM     58  CA  MET A   2      12.888   9.214  18.756  0.00  0.00    +0.149 C 
BRANCH  58  61
ATOM     59  C   LYS A   1      12.568   8.366  21.015  0.00  0.00    +0.238 C 
ATOM     60  O   LYS A   1      13.751   8.537  21.306  0.00  0.00    -0.274 OA
ATOM     61  N   MET A   2      12.070   8.651  19.819  0.00  0.00    -0.297 N 
ATOM     62  H   MET A   2      11.063   8.466  19.636  0.00  0.00    +0.150 HD
BRANCH  59  63
ATOM     63  CA  LYS A   1      11.575   7.796  22.028  0.00  0.00    +0.145 C 
BRANCH  63  64
ATOM     64  N   LYS A   1      12.132   6.699  22.811  0.00  0.00    -0.238 NA
ATOM     65  H   LYS A   1      13.164   6.612  22.908  0.00  0.00    +0.142 HD
ENDBRANCH  63  64
BRANCH  63  66
ATOM     66  CB  LYS A   1      11.089   8.906  22.969  0.00  0.00    +0.026 C 
BRANCH  66  67
ATOM     67  CG  LYS A   1      10.574  10.169  22.280  0.00  0.00    -0.000 C 
BRANCH  67  68
ATOM     68  CD  LYS A   1       9.420   9.884  21.335  0.00  0.00    -0.024 C 
BRANCH  68  69
ATOM     69  CE  LYS A   1       8.808  11.180  20.794  0.00  0.00    -0.086 C 
BRANCH  69  70
ATOM     70  NZ  LYS A   1       8.149  11.992  21.858  0.00  0.00    +0.380 N 
ATOM     71  HZ1 LYS A   1       8.851  12.248  22.582  0.00  0.00    -0.089 HD
ATOM     72  HZ2 LYS A   1       7.386  11.436  22.294  0.00  0.00    -0.089 HD
ATOM     73  HZ3 LYS A   1       7.753  12.856  21.437  0.00  0.00    -0.089 HD
ENDBRANCH  69  70
ENDBRANCH  68  69
ENDBRANCH  67  68
ENDBRANCH  66  67
ENDBRANCH  63  66
ENDBRANCH  59  63
ENDBRANCH  58  61
BRANCH  58  74
ATOM     74  CB  MET A   2      12.686   8.430  17.460  0.00  0.00    +0.041 C 
BRANCH  74  75
ATOM     75  CG  MET A   2      13.069   6.970  17.540  0.00  0.00    +0.060 C 
BRANCH  75  76
ATOM     76  SD  MET A   2      14.845   6.760  17.512  0.00  0.00    -0.139 S 
ATOM     77  CE  MET A   2      15.151   6.792  15.733  0.00  0.00    +0.069 C 
ENDBRANCH  75  76
ENDBRANCH  74  75
ENDBRANCH  58  74
ENDBRANCH  54  58
ENDBRANCH  53  55
BRANCH  53  78
ATOM     78  CB  ILE A   3      13.324  13.870  19.594  0.00  0.00    +0.027 C 
ATOM     79  CG2 ILE A   3      12.301  13.517  20.665  0.00  0.00    +0.002 C 
BRANCH  78  80
ATOM     80  CG1 ILE A   3      14.755  13.712  20.113  0.00  0.00    +0.002 C 
ATOM     81  CD1 ILE A   3      15.084  14.619  21.296  0.00  0.00    +0.000 C 
ENDBRANCH  78  80
ENDBRANCH  53  78
ENDBRANCH  49  53
ENDBRANCH  48  51
ENDBRANCH  44  48
ENDBRANCH  43  46
ENDBRANCH   1  43
TORSDOF 36
REMARK  Name = ../refined-set-2016/1mrw/1mrw_pocket.pdb
REMARK  233 active torsions:
REMARK  status: ('A' for Active; 'I' for Inactive)
REMARK    1  A    between atoms: _1  and  _3
REMARK    2  A    between atoms: _3  and  _4
REMARK    3  A    between atoms: _3  and  _6
REMARK    4  A    between atoms: _6  and  _7
REMARK    5  A    between atoms: _7  and  _8
REMARK    6  A    between atoms: _8  and  _9
REMARK    7  A    between atoms: _18  and  _20
REMARK    8  A    between atoms: _20  and  _21
REMARK    9  A    between atoms: _20  and  _23
REMARK   10  A    between atoms: _23  and  _24
REMARK   11  A    between atoms: _27  and  _29
REMARK   12  A    between atoms: _29  and  _30
REMARK   13  A    between atoms: _29  and  _32
REMARK   14  A    between atoms: _32  and  _33
REMARK   15  A    between atoms: _36  and  _38
REMARK   16  A    between atoms: _38  and  _39
REMARK   17  A    between atoms: _38  and  _41
REMARK   18  A    between atoms: _41  and  _42
REMARK   19  A    between atoms: _45  and  _47
REMARK   20  A    between atoms: _47  and  _48
REMARK   21  A    between atoms: _47  and  _50
REMARK   22  A    between atoms: _50  and  _51
REMARK   23  A    between atoms: _54  and  _56
REMARK   24  A    between atoms: _56  and  _57
REMARK   25  A    between atoms: _56  and  _59
REMARK   26  A    between atoms: _59  and  _60
REMARK   27  A    between atoms: _63  and  _65
REMARK   28  A    between atoms: _65  and  _66
REMARK   29  A    between atoms: _68  and  _70
REMARK   30  A    between atoms: _70  and  _71
REMARK   31  A    between atoms: _74  and  _76
REMARK   32  A    between atoms: _76  and  _77
REMARK   33  A    between atoms: _76  and  _79
REMARK   34  A    between atoms: _79  and  _80
REMARK   35  A    between atoms: _83  and  _85
REMARK   36  A    between atoms: _85  and  _86
REMARK   37  A    between atoms: _85  and  _88
REMARK   38  A    between atoms: _88  and  _89
REMARK   39  A    between atoms: _92  and  _94
REMARK   40  A    between atoms: _94  and  _95
REMARK   41  A    between atoms: _94  and  _97
REMARK   42  A    between atoms: _97  and  _98
REMARK   43  A    between atoms: _101  and  _103
REMARK   44  A    between atoms: _103  and  _104
REMARK   45  A    between atoms: _103  and  _106
REMARK   46  A    between atoms: _109  and  _111
REMARK   47  A    between atoms: _111  and  _112
REMARK   48  A    between atoms: _111  and  _114
REMARK   49  A    between atoms: _114  and  _115
REMARK   50  A    between atoms: _115  and  _116
REMARK   51  A    between atoms: _116  and  _117
REMARK   52  A    between atoms: _117  and  _118
REMARK   53  A    between atoms: _122  and  _124
REMARK   54  A    between atoms: _124  and  _125
REMARK   55  A    between atoms: _124  and  _127
REMARK   56  A    between atoms: _127  and  _128
REMARK   57  A    between atoms: _128  and  _129
REMARK   58  A    between atoms: _131  and  _133
REMARK   59  A    between atoms: _133  and  _134
REMARK   60  A    between atoms: _133  and  _136
REMARK   61  A    between atoms: _136  and  _137
REMARK   62  A    between atoms: _140  and  _142
REMARK   63  A    between atoms: _142  and  _143
REMARK   64  A    between atoms: _145  and  _147
REMARK   65  A    between atoms: _147  and  _148
REMARK   66  A    between atoms: _150  and  _152
REMARK   67  A    between atoms: _152  and  _153
REMARK   68  A    between atoms: _152  and  _155
REMARK   69  A    between atoms: _155  and  _156
REMARK   70  A    between atoms: _159  and  _161
REMARK   71  A    between atoms: _161  and  _162
REMARK   72  A    between atoms: _164  and  _166
REMARK   73  A    between atoms: _166  and  _167
REMARK   74  A    between atoms: _169  and  _171
REMARK   75  A    between atoms: _171  and  _172
REMARK   76  A    between atoms: _171  and  _174
REMARK   77  A    between atoms: _174  and  _175
REMARK   78  A    between atoms: _181  and  _183
REMARK   79  A    between atoms: _183  and  _184
REMARK   80  A    between atoms: _183  and  _186
REMARK   81  A    between atoms: _186  and  _187
REMARK   82  A    between atoms: _190  and  _192
REMARK   83  A    between atoms: _192  and  _193
REMARK   84  A    between atoms: _192  and  _195
REMARK   85  A    between atoms: _195  and  _196
REMARK   86  A    between atoms: _199  and  _201
REMARK   87  A    between atoms: _201  and  _202
REMARK   88  A    between atoms: _201  and  _204
REMARK   89  A    between atoms: _204  and  _205
REMARK   90  A    between atoms: _209  and  _210
REMARK   91  A    between atoms: _215  and  _217
REMARK   92  A    between atoms: _217  and  _218
REMARK   93  A    between atoms: _217  and  _220
REMARK   94  A    between atoms: _223  and  _225
REMARK   95  A    between atoms: _225  and  _226
REMARK   96  A    between atoms: _225  and  _228
REMARK   97  A    between atoms: _228  and  _229
REMARK   98  A    between atoms: _234  and  _236
REMARK   99  A    between atoms: _236  and  _237
REMARK  100  A    between atoms: _236  and  _239
REMARK  101  A    between atoms: _239  and  _240
REMARK  102  A    between atoms: _243  and  _245
REMARK  103  A    between atoms: _245  and  _246
REMARK  104  A    between atoms: _245  and  _248
REMARK  105  A    between atoms: _248  and  _249
REMARK  106  A    between atoms: _252  and  _254
REMARK  107  A    between atoms: _254  and  _255
REMARK  108  A    between atoms: _257  and  _259
REMARK  109  A    between atoms: _259  and  _260
REMARK  110  A    between atoms: _259  and  _262
REMARK  111  A    between atoms: _262  and  _263
REMARK  112  A    between atoms: _263  and  _264
REMARK  113  A    between atoms: _264  and  _265
REMARK  114  A    between atoms: _274  and  _276
REMARK  115  A    between atoms: _276  and  _277
REMARK  116  A    between atoms: _276  and  _279
REMARK  117  A    between atoms: _279  and  _280
REMARK  118  A    between atoms: _280  and  _281
REMARK  119  A    between atoms: _281  and  _282
REMARK  120  A    between atoms: _291  and  _293
REMARK  121  A    between atoms: _293  and  _294
REMARK  122  A    between atoms: _293  and  _296
REMARK  123  A    between atoms: _296  and  _297
REMARK  124  A    between atoms: _300  and  _302
REMARK  125  A    between atoms: _302  and  _303
REMARK  126  A    between atoms: _302  and  _305
REMARK  127  A    between atoms: _305  and  _306
REMARK  128  A    between atoms: _309  and  _311
REMARK  129  A    between atoms: _311  and  _312
REMARK  130  A    between atoms: _311  and  _314
REMARK  131  A    between atoms: _314  and  _315
REMARK  132  A    between atoms: _318  and  _320
REMARK  133  A    between atoms: _320  and  _321
REMARK  134  A    between atoms: _320  and  _323
REMARK  135  A    between atoms: _323  and  _324
REMARK  136  A    between atoms: _327  and  _329
REMARK  137  A    between atoms: _329  and  _330
REMARK  138  A    between atoms: _329  and  _332
REMARK  139  A    between atoms: _332  and  _333
REMARK  140  A    between atoms: _336  and  _338
REMARK  141  A    between atoms: _338  and  _339
REMARK  142  A    between atoms: _341  and  _343
REMARK  143  A    between atoms: _343  and  _344
REMARK  144  A    between atoms: _347  and  _349
REMARK  145  A    between atoms: _349  and  _350
REMARK  146  A    between atoms: _349  and  _352
REMARK  147  A    between atoms: _352  and  _353
REMARK  148  A    between atoms: _356  and  _358
REMARK  149  A    between atoms: _358  and  _359
REMARK  150  A    between atoms: _358  and  _361
REMARK  151  A    between atoms: _361  and  _362
REMARK  152  A    between atoms: _365  and  _367
REMARK  153  A    between atoms: _367  and  _368
REMARK  154  A    between atoms: _367  and  _370
REMARK  155  A    between atoms: _370  and  _371
REMARK  156  A    between atoms: _374  and  _376
REMARK  157  A    between atoms: _376  and  _377
REMARK  158  A    between atoms: _376  and  _379
REMARK  159  A    between atoms: _382  and  _384
REMARK  160  A    between atoms: _384  and  _385
REMARK  161  A    between atoms: _384  and  _387
REMARK  162  A    between atoms: _387  and  _388
REMARK  163  A    between atoms: _388  and  _389
REMARK  164  A    between atoms: _389  and  _390
REMARK  165  A    between atoms: _390  and  _391
REMARK  166  A    between atoms: _395  and  _397
REMARK  167  A    between atoms: _397  and  _398
REMARK  168  A    between atoms: _397  and  _400
REMARK  169  A    between atoms: _400  and  _401
REMARK  170  A    between atoms: _401  and  _402
REMARK  171  A    between atoms: _404  and  _406
REMARK  172  A    between atoms: _406  and  _407
REMARK  173  A    between atoms: _406  and  _409
REMARK  174  A    between atoms: _409  and  _410
REMARK  175  A    between atoms: _413  and  _415
REMARK  176  A    between atoms: _415  and  _416
REMARK  177  A    between atoms: _418  and  _420
REMARK  178  A    between atoms: _420  and  _421
REMARK  179  A    between atoms: _423  and  _425
REMARK  180  A    between atoms: _425  and  _426
REMARK  181  A    between atoms: _425  and  _428
REMARK  182  A    between atoms: _428  and  _429
REMARK  183  A    between atoms: _432  and  _434
REMARK  184  A    between atoms: _434  and  _435
REMARK  185  A    between atoms: _437  and  _439
REMARK  186  A    between atoms: _439  and  _440
REMARK  187  A    between atoms: _442  and  _444
REMARK  188  A    between atoms: _444  and  _445
REMARK  189  A    between atoms: _444  and  _447
REMARK  190  A    between atoms: _447  and  _448
REMARK  191  A    between atoms: _454  and  _456
REMARK  192  A    between atoms: _456  and  _457
REMARK  193  A    between atoms: _456  and  _459
REMARK  194  A    between atoms: _459  and  _460
REMARK  195  A    between atoms: _463  and  _465
REMARK  196  A    between atoms: _465  and  _466
REMARK  197  A    between atoms: _465  and  _468
REMARK  198  A    between atoms: _471  and  _473
REMARK  199  A    between atoms: _473  and  _474
REMARK  200  A    between atoms: _473  and  _476
REMARK  201  A    between atoms: _476  and  _477
REMARK  202  A    between atoms: _480  and  _482
REMARK  203  A    between atoms: _482  and  _483
REMARK  204  A    between atoms: _482  and  _485
REMARK  205  A    between atoms: _485  and  _486
REMARK  206  A    between atoms: _490  and  _491
REMARK  207  A    between atoms: _496  and  _498
REMARK  208  A    between atoms: _498  and  _499
REMARK  209  A    between atoms: _498  and  _501
REMARK  210  A    between atoms: _504  and  _506
REMARK  211  A    between atoms: _506  and  _507
REMARK  212  A    between atoms: _506  and  _509
REMARK  213  A    between atoms: _509  and  _510
REMARK  214  A    between atoms: _515  and  _517
REMARK  215  A    between atoms: _517  and  _518
REMARK  216  A    between atoms: _517  and  _520
REMARK  217  A    between atoms: _520  and  _521
REMARK  218  A    between atoms: _524  and  _526
REMARK  219  A    between atoms: _526  and  _527
REMARK  220  A    between atoms: _526  and  _529
REMARK  221  A    between atoms: _529  and  _530
REMARK  222  A    between atoms: _533  and  _535
REMARK  223  A    between atoms: _535  and  _536
REMARK  224  A    between atoms: _538  and  _540
REMARK  225  A    between atoms: _540  and  _541
REMARK  226  A    between atoms: _540  and  _543
REMARK  227  A    between atoms: _543  and  _544
REMARK  228  A    between atoms: _544  and  _545
REMARK  229  A    between atoms: _545  and  _546
REMARK  230  A    between atoms: _555  and  _557
REMARK  231  A    between atoms: _557  and  _558
REMARK  232  A    between atoms: _557  and  _560
REMARK  233  A    between atoms: _560  and  _561
REMARK                            x       y       z     vdW  Elec       q    Type
REMARK                         _______ _______ _______ _____ _____    ______ ____
ROOT
ATOM      1  CA  VAL A   1      16.276   9.370  24.195  0.00  0.00    +0.133 C 
ENDROOT
BRANCH   1   2
ATOM      2  CB  VAL A   1      15.725  10.818  24.232  0.00  0.00    +0.023 C 
ATOM      3  CG2 VAL A   1      14.276  10.833  23.756  0.00  0.00    +0.002 C 
ATOM      4  CG1 VAL A   1      16.576  11.725  23.357  0.00  0.00    +0.002 C 
ENDBRANCH   1   2
BRANCH   1   5
ATOM      5  N   VAL A   1      16.237   8.825  22.845  0.00  0.00    -0.239 NA
ATOM      6  H   VAL A   1      15.323   8.556  22.427  0.00  0.00    +0.142 HD
ENDBRANCH   1   5
BRANCH   1   7
ATOM      7  C   VAL A   1      15.438   8.511  25.132  0.00  0.00    +0.224 C 
ATOM      8  O   VAL A   1      14.668   7.664  24.684  0.00  0.00    -0.287 OA
ENDBRANCH   1   7
TORSDOF 3
REMARK  Name = ../refined-set-2016/1mrw/1mrw_pocket.pdb
REMARK  233 active torsions:
REMARK  status: ('A' for Active; 'I' for Inactive)
REMARK    1  A    between atoms: _1  and  _3
REMARK    2  A    between atoms: _3  and  _4
REMARK    3  A    between atoms: _3  and  _6
REMARK    4  A    between atoms: _6  and  _7
REMARK    5  A    between atoms: _7  and  _8
REMARK    6  A    between atoms: _8  and  _9
REMARK    7  A    between atoms: _18  and  _20
REMARK    8  A    between atoms: _20  and  _21
REMARK    9  A    between atoms: _20  and  _23
REMARK   10  A    between atoms: _23  and  _24
REMARK   11  A    between atoms: _27  and  _29
REMARK   12  A    between atoms: _29  and  _30
REMARK   13  A    between atoms: _29  and  _32
REMARK   14  A    between atoms: _32  and  _33
REMARK   15  A    between atoms: _36  and  _38
REMARK   16  A    between atoms: _38  and  _39
REMARK   17  A    between atoms: _38  and  _41
REMARK   18  A    between atoms: _41  and  _42
REMARK   19  A    between atoms: _45  and  _47
REMARK   20  A    between atoms: _47  and  _48
REMARK   21  A    between atoms: _47  and  _50
REMARK   22  A    between atoms: _50  and  _51
REMARK   23  A    between atoms: _54  and  _56
REMARK   24  A    between atoms: _56  and  _57
REMARK   25  A    between atoms: _56  and  _59
REMARK   26  A    between atoms: _59  and  _60
REMARK   27  A    between atoms: _63  and  _65
REMARK   28  A    between atoms: _65  and  _66
REMARK   29  A    between atoms: _68  and  _70
REMARK   30  A    between atoms: _70  and  _71
REMARK   31  A    between atoms: _74  and  _76
REMARK   32  A    between atoms: _76  and  _77
REMARK   33  A    between atoms: _76  and  _79
REMARK   34  A    between atoms: _79  and  _80
REMARK   35  A    between atoms: _83  and  _85
REMARK   36  A    between atoms: _85  and  _86
REMARK   37  A    between atoms: _85  and  _88
REMARK   38  A    between atoms: _88  and  _89
REMARK   39  A    between atoms: _92  and  _94
REMARK   40  A    between atoms: _94  and  _95
REMARK   41  A    between atoms: _94  and  _97
REMARK   42  A    between atoms: _97  and  _98
REMARK   43  A    between atoms: _101  and  _103
REMARK   44  A    between atoms: _103  and  _104
REMARK   45  A    between atoms: _103  and  _106
REMARK   46  A    between atoms: _109  and  _111
REMARK   47  A    between atoms: _111  and  _112
REMARK   48  A    between atoms: _111  and  _114
REMARK   49  A    between atoms: _114  and  _115
REMARK   50  A    between atoms: _115  and  _116
REMARK   51  A    between atoms: _116  and  _117
REMARK   52  A    between atoms: _117  and  _118
REMARK   53  A    between atoms: _122  and  _124
REMARK   54  A    between atoms: _124  and  _125
REMARK   55  A    between atoms: _124  and  _127
REMARK   56  A    between atoms: _127  and  _128
REMARK   57  A    between atoms: _128  and  _129
REMARK   58  A    between atoms: _131  and  _133
REMARK   59  A    between atoms: _133  and  _134
REMARK   60  A    between atoms: _133  and  _136
REMARK   61  A    between atoms: _136  and  _137
REMARK   62  A    between atoms: _140  and  _142
REMARK   63  A    between atoms: _142  and  _143
REMARK   64  A    between atoms: _145  and  _147
REMARK   65  A    between atoms: _147  and  _148
REMARK   66  A    between atoms: _150  and  _152
REMARK   67  A    between atoms: _152  and  _153
REMARK   68  A    between atoms: _152  and  _155
REMARK   69  A    between atoms: _155  and  _156
REMARK   70  A    between atoms: _159  and  _161
REMARK   71  A    between atoms: _161  and  _162
REMARK   72  A    between atoms: _164  and  _166
REMARK   73  A    between atoms: _166  and  _167
REMARK   74  A    between atoms: _169  and  _171
REMARK   75  A    between atoms: _171  and  _172
REMARK   76  A    between atoms: _171  and  _174
REMARK   77  A    between atoms: _174  and  _175
REMARK   78  A    between atoms: _181  and  _183
REMARK   79  A    between atoms: _183  and  _184
REMARK   80  A    between atoms: _183  and  _186
REMARK   81  A    between atoms: _186  and  _187
REMARK   82  A    between atoms: _190  and  _192
REMARK   83  A    between atoms: _192  and  _193
REMARK   84  A    between atoms: _192  and  _195
REMARK   85  A    between atoms: _195  and  _196
REMARK   86  A    between atoms: _199  and  _201
REMARK   87  A    between atoms: _201  and  _202
REMARK   88  A    between atoms: _201  and  _204
REMARK   89  A    between atoms: _204  and  _205
REMARK   90  A    between atoms: _209  and  _210
REMARK   91  A    between atoms: _215  and  _217
REMARK   92  A    between atoms: _217  and  _218
REMARK   93  A    between atoms: _217  and  _220
REMARK   94  A    between atoms: _223  and  _225
REMARK   95  A    between atoms: _225  and  _226
REMARK   96  A    between atoms: _225  and  _228
REMARK   97  A    between atoms: _228  and  _229
REMARK   98  A    between atoms: _234  and  _236
REMARK   99  A    between atoms: _236  and  _237
REMARK  100  A    between atoms: _236  and  _239
REMARK  101  A    between atoms: _239  and  _240
REMARK  102  A    between atoms: _243  and  _245
REMARK  103  A    between atoms: _245  and  _246
REMARK  104  A    between atoms: _245  and  _248
REMARK  105  A    between atoms: _248  and  _249
REMARK  106  A    between atoms: _252  and  _254
REMARK  107  A    between atoms: _254  and  _255
REMARK  108  A    between atoms: _257  and  _259
REMARK  109  A    between atoms: _259  and  _260
REMARK  110  A    between atoms: _259  and  _262
REMARK  111  A    between atoms: _262  and  _263
REMARK  112  A    between atoms: _263  and  _264
REMARK  113  A    between atoms: _264  and  _265
REMARK  114  A    between atoms: _274  and  _276
REMARK  115  A    between atoms: _276  and  _277
REMARK  116  A    between atoms: _276  and  _279
REMARK  117  A    between atoms: _279  and  _280
REMARK  118  A    between atoms: _280  and  _281
REMARK  119  A    between atoms: _281  and  _282
REMARK  120  A    between atoms: _291  and  _293
REMARK  121  A    between atoms: _293  and  _294
REMARK  122  A    between atoms: _293  and  _296
REMARK  123  A    between atoms: _296  and  _297
REMARK  124  A    between atoms: _300  and  _302
REMARK  125  A    between atoms: _302  and  _303
REMARK  126  A    between atoms: _302  and  _305
REMARK  127  A    between atoms: _305  and  _306
REMARK  128  A    between atoms: _309  and  _311
REMARK  129  A    between atoms: _311  and  _312
REMARK  130  A    between atoms: _311  and  _314
REMARK  131  A    between atoms: _314  and  _315
REMARK  132  A    between atoms: _318  and  _320
REMARK  133  A    between atoms: _320  and  _321
REMARK  134  A    between atoms: _320  and  _323
REMARK  135  A    between atoms: _323  and  _324
REMARK  136  A    between atoms: _327  and  _329
REMARK  137  A    between atoms: _329  and  _330
REMARK  138  A    between atoms: _329  and  _332
REMARK  139  A    between atoms: _332  and  _333
REMARK  140  A    between atoms: _336  and  _338
REMARK  141  A    between atoms: _338  and  _339
REMARK  142  A    between atoms: _341  and  _343
REMARK  143  A    between atoms: _343  and  _344
REMARK  144  A    between atoms: _347  and  _349
REMARK  145  A    between atoms: _349  and  _350
REMARK  146  A    between atoms: _349  and  _352
REMARK  147  A    between atoms: _352  and  _353
REMARK  148  A    between atoms: _356  and  _358
REMARK  149  A    between atoms: _358  and  _359
REMARK  150  A    between atoms: _358  and  _361
REMARK  151  A    between atoms: _361  and  _362
REMARK  152  A    between atoms: _365  and  _367
REMARK  153  A    between atoms: _367  and  _368
REMARK  154  A    between atoms: _367  and  _370
REMARK  155  A    between atoms: _370  and  _371
REMARK  156  A    between atoms: _374  and  _376
REMARK  157  A    between atoms: _376  and  _377
REMARK  158  A    between atoms: _376  and  _379
REMARK  159  A    between atoms: _382  and  _384
REMARK  160  A    between atoms: _384  and  _385
REMARK  161  A    between atoms: _384  and  _387
REMARK  162  A    between atoms: _387  and  _388
REMARK  163  A    between atoms: _388  and  _389
REMARK  164  A    between atoms: _389  and  _390
REMARK  165  A    between atoms: _390  and  _391
REMARK  166  A    between atoms: _395  and  _397
REMARK  167  A    between atoms: _397  and  _398
REMARK  168  A    between atoms: _397  and  _400
REMARK  169  A    between atoms: _400  and  _401
REMARK  170  A    between atoms: _401  and  _402
REMARK  171  A    between atoms: _404  and  _406
REMARK  172  A    between atoms: _406  and  _407
REMARK  173  A    between atoms: _406  and  _409
REMARK  174  A    between atoms: _409  and  _410
REMARK  175  A    between atoms: _413  and  _415
REMARK  176  A    between atoms: _415  and  _416
REMARK  177  A    between atoms: _418  and  _420
REMARK  178  A    between atoms: _420  and  _421
REMARK  179  A    between atoms: _423  and  _425
REMARK  180  A    between atoms: _425  and  _426
REMARK  181  A    between atoms: _425  and  _428
REMARK  182  A    between atoms: _428  and  _429
REMARK  183  A    between atoms: _432  and  _434
REMARK  184  A    between atoms: _434  and  _435
REMARK  185  A    between atoms: _437  and  _439
REMARK  186  A    between atoms: _439  and  _440
REMARK  187  A    between atoms: _442  and  _444
REMARK  188  A    between atoms: _444  and  _445
REMARK  189  A    between atoms: _444  and  _447
REMARK  190  A    between atoms: _447  and  _448
REMARK  191  A    between atoms: _454  and  _456
REMARK  192  A    between atoms: _456  and  _457
REMARK  193  A    between atoms: _456  and  _459
REMARK  194  A    between atoms: _459  and  _460
REMARK  195  A    between atoms: _463  and  _465
REMARK  196  A    between atoms: _465  and  _466
REMARK  197  A    between atoms: _465  and  _468
REMARK  198  A    between atoms: _471  and  _473
REMARK  199  A    between atoms: _473  and  _474
REMARK  200  A    between atoms: _473  and  _476
REMARK  201  A    between atoms: _476  and  _477
REMARK  202  A    between atoms: _480  and  _482
REMARK  203  A    between atoms: _482  and  _483
REMARK  204  A    between atoms: _482  and  _485
REMARK  205  A    between atoms: _485  and  _486
REMARK  206  A    between atoms: _490  and  _491
REMARK  207  A    between atoms: _496  and  _498
REMARK  208  A    between atoms: _498  and  _499
REMARK  209  A    between atoms: _498  and  _501
REMARK  210  A    between atoms: _504  and  _506
REMARK  211  A    between atoms: _506  and  _507
REMARK  212  A    between atoms: _506  and  _509
REMARK  213  A    between atoms: _509  and  _510
REMARK  214  A    between atoms: _515  and  _517
REMARK  215  A    between atoms: _517  and  _518
REMARK  216  A    between atoms: _517  and  _520
REMARK  217  A    between atoms: _520  and  _521
REMARK  218  A    between atoms: _524  and  _526
REMARK  219  A    between atoms: _526  and  _527
REMARK  220  A    between atoms: _526  and  _529
REMARK  221  A    between atoms: _529  and  _530
REMARK  222  A    between atoms: _533  and  _535
REMARK  223  A    between atoms: _535  and  _536
REMARK  224  A    between atoms: _538  and  _540
REMARK  225  A    between atoms: _540  and  _541
REMARK  226  A    between atoms: _540  and  _543
REMARK  227  A    between atoms: _543  and  _544
REMARK  228  A    between atoms: _544  and  _545
REMARK  229  A    between atoms: _545  and  _546
REMARK  230  A    between atoms: _555  and  _557
REMARK  231  A    between atoms: _557  and  _558
REMARK  232  A    between atoms: _557  and  _560
REMARK  233  A    between atoms: _560  and  _561
REMARK                            x       y       z     vdW  Elec       q    Type
REMARK                         _______ _______ _______ _____ _____    ______ ____
ROOT
ATOM      1  CA  LEU A   1      13.410  13.145  27.932  0.00  0.00    +0.133 C 
ENDROOT
BRANCH   1   2
ATOM      2  N   LEU A   1      12.616  14.090  28.692  0.00  0.00    -0.239 NA
ATOM      3  H   LEU A   1      12.597  15.089  28.404  0.00  0.00    +0.142 HD
ENDBRANCH   1   2
BRANCH   1   4
ATOM      4  C   LEU A   1      14.849  13.357  28.356  0.00  0.00    +0.224 C 
ATOM      5  O   LEU A   1      15.267  14.483  28.633  0.00  0.00    -0.287 OA
ENDBRANCH   1   4
BRANCH   1   6
ATOM      6  CB  LEU A   1      13.266  13.403  26.426  0.00  0.00    +0.025 C 
BRANCH   6   7
ATOM      7  CG  LEU A   1      11.829  13.501  25.886  0.00  0.00    +0.002 C 
ATOM      8  CD2 LEU A   1      11.048  12.238  26.230  0.00  0.00    +0.000 C 
ATOM      9  CD1 LEU A   1      11.859  13.708  24.371  0.00  0.00    +0.000 C 
ENDBRANCH   6   7
ENDBRANCH   1   6
TORSDOF 4
REMARK  Name = ../refined-set-2016/1mrw/1mrw_pocket.pdb
REMARK  233 active torsions:
REMARK  status: ('A' for Active; 'I' for Inactive)
REMARK    1  A    between atoms: _1  and  _3
REMARK    2  A    between atoms: _3  and  _4
REMARK    3  A    between atoms: _3  and  _6
REMARK    4  A    between atoms: _6  and  _7
REMARK    5  A    between atoms: _7  and  _8
REMARK    6  A    between atoms: _8  and  _9
REMARK    7  A    between atoms: _18  and  _20
REMARK    8  A    between atoms: _20  and  _21
REMARK    9  A    between atoms: _20  and  _23
REMARK   10  A    between atoms: _23  and  _24
REMARK   11  A    between atoms: _27  and  _29
REMARK   12  A    between atoms: _29  and  _30
REMARK   13  A    between atoms: _29  and  _32
REMARK   14  A    between atoms: _32  and  _33
REMARK   15  A    between atoms: _36  and  _38
REMARK   16  A    between atoms: _38  and  _39
REMARK   17  A    between atoms: _38  and  _41
REMARK   18  A    between atoms: _41  and  _42
REMARK   19  A    between atoms: _45  and  _47
REMARK   20  A    between atoms: _47  and  _48
REMARK   21  A    between atoms: _47  and  _50
REMARK   22  A    between atoms: _50  and  _51
REMARK   23  A    between atoms: _54  and  _56
REMARK   24  A    between atoms: _56  and  _57
REMARK   25  A    between atoms: _56  and  _59
REMARK   26  A    between atoms: _59  and  _60
REMARK   27  A    between atoms: _63  and  _65
REMARK   28  A    between atoms: _65  and  _66
REMARK   29  A    between atoms: _68  and  _70
REMARK   30  A    between atoms: _70  and  _71
REMARK   31  A    between atoms: _74  and  _76
REMARK   32  A    between atoms: _76  and  _77
REMARK   33  A    between atoms: _76  and  _79
REMARK   34  A    between atoms: _79  and  _80
REMARK   35  A    between atoms: _83  and  _85
REMARK   36  A    between atoms: _85  and  _86
REMARK   37  A    between atoms: _85  and  _88
REMARK   38  A    between atoms: _88  and  _89
REMARK   39  A    between atoms: _92  and  _94
REMARK   40  A    between atoms: _94  and  _95
REMARK   41  A    between atoms: _94  and  _97
REMARK   42  A    between atoms: _97  and  _98
REMARK   43  A    between atoms: _101  and  _103
REMARK   44  A    between atoms: _103  and  _104
REMARK   45  A    between atoms: _103  and  _106
REMARK   46  A    between atoms: _109  and  _111
REMARK   47  A    between atoms: _111  and  _112
REMARK   48  A    between atoms: _111  and  _114
REMARK   49  A    between atoms: _114  and  _115
REMARK   50  A    between atoms: _115  and  _116
REMARK   51  A    between atoms: _116  and  _117
REMARK   52  A    between atoms: _117  and  _118
REMARK   53  A    between atoms: _122  and  _124
REMARK   54  A    between atoms: _124  and  _125
REMARK   55  A    between atoms: _124  and  _127
REMARK   56  A    between atoms: _127  and  _128
REMARK   57  A    between atoms: _128  and  _129
REMARK   58  A    between atoms: _131  and  _133
REMARK   59  A    between atoms: _133  and  _134
REMARK   60  A    between atoms: _133  and  _136
REMARK   61  A    between atoms: _136  and  _137
REMARK   62  A    between atoms: _140  and  _142
REMARK   63  A    between atoms: _142  and  _143
REMARK   64  A    between atoms: _145  and  _147
REMARK   65  A    between atoms: _147  and  _148
REMARK   66  A    between atoms: _150  and  _152
REMARK   67  A    between atoms: _152  and  _153
REMARK   68  A    between atoms: _152  and  _155
REMARK   69  A    between atoms: _155  and  _156
REMARK   70  A    between atoms: _159  and  _161
REMARK   71  A    between atoms: _161  and  _162
REMARK   72  A    between atoms: _164  and  _166
REMARK   73  A    between atoms: _166  and  _167
REMARK   74  A    between atoms: _169  and  _171
REMARK   75  A    between atoms: _171  and  _172
REMARK   76  A    between atoms: _171  and  _174
REMARK   77  A    between atoms: _174  and  _175
REMARK   78  A    between atoms: _181  and  _183
REMARK   79  A    between atoms: _183  and  _184
REMARK   80  A    between atoms: _183  and  _186
REMARK   81  A    between atoms: _186  and  _187
REMARK   82  A    between atoms: _190  and  _192
REMARK   83  A    between atoms: _192  and  _193
REMARK   84  A    between atoms: _192  and  _195
REMARK   85  A    between atoms: _195  and  _196
REMARK   86  A    between atoms: _199  and  _201
REMARK   87  A    between atoms: _201  and  _202
REMARK   88  A    between atoms: _201  and  _204
REMARK   89  A    between atoms: _204  and  _205
REMARK   90  A    between atoms: _209  and  _210
REMARK   91  A    between atoms: _215  and  _217
REMARK   92  A    between atoms: _217  and  _218
REMARK   93  A    between atoms: _217  and  _220
REMARK   94  A    between atoms: _223  and  _225
REMARK   95  A    between atoms: _225  and  _226
REMARK   96  A    between atoms: _225  and  _228
REMARK   97  A    between atoms: _228  and  _229
REMARK   98  A    between atoms: _234  and  _236
REMARK   99  A    between atoms: _236  and  _237
REMARK  100  A    between atoms: _236  and  _239
REMARK  101  A    between atoms: _239  and  _240
REMARK  102  A    between atoms: _243  and  _245
REMARK  103  A    between atoms: _245  and  _246
REMARK  104  A    between atoms: _245  and  _248
REMARK  105  A    between atoms: _248  and  _249
REMARK  106  A    between atoms: _252  and  _254
REMARK  107  A    between atoms: _254  and  _255
REMARK  108  A    between atoms: _257  and  _259
REMARK  109  A    between atoms: _259  and  _260
REMARK  110  A    between atoms: _259  and  _262
REMARK  111  A    between atoms: _262  and  _263
REMARK  112  A    between atoms: _263  and  _264
REMARK  113  A    between atoms: _264  and  _265
REMARK  114  A    between atoms: _274  and  _276
REMARK  115  A    between atoms: _276  and  _277
REMARK  116  A    between atoms: _276  and  _279
REMARK  117  A    between atoms: _279  and  _280
REMARK  118  A    between atoms: _280  and  _281
REMARK  119  A    between atoms: _281  and  _282
REMARK  120  A    between atoms: _291  and  _293
REMARK  121  A    between atoms: _293  and  _294
REMARK  122  A    between atoms: _293  and  _296
REMARK  123  A    between atoms: _296  and  _297
REMARK  124  A    between atoms: _300  and  _302
REMARK  125  A    between atoms: _302  and  _303
REMARK  126  A    between atoms: _302  and  _305
REMARK  127  A    between atoms: _305  and  _306
REMARK  128  A    between atoms: _309  and  _311
REMARK  129  A    between atoms: _311  and  _312
REMARK  130  A    between atoms: _311  and  _314
REMARK  131  A    between atoms: _314  and  _315
REMARK  132  A    between atoms: _318  and  _320
REMARK  133  A    between atoms: _320  and  _321
REMARK  134  A    between atoms: _320  and  _323
REMARK  135  A    between atoms: _323  and  _324
REMARK  136  A    between atoms: _327  and  _329
REMARK  137  A    between atoms: _329  and  _330
REMARK  138  A    between atoms: _329  and  _332
REMARK  139  A    between atoms: _332  and  _333
REMARK  140  A    between atoms: _336  and  _338
REMARK  141  A    between atoms: _338  and  _339
REMARK  142  A    between atoms: _341  and  _343
REMARK  143  A    between atoms: _343  and  _344
REMARK  144  A    between atoms: _347  and  _349
REMARK  145  A    between atoms: _349  and  _350
REMARK  146  A    between atoms: _349  and  _352
REMARK  147  A    between atoms: _352  and  _353
REMARK  148  A    between atoms: _356  and  _358
REMARK  149  A    between atoms: _358  and  _359
REMARK  150  A    between atoms: _358  and  _361
REMARK  151  A    between atoms: _361  and  _362
REMARK  152  A    between atoms: _365  and  _367
REMARK  153  A    between atoms: _367  and  _368
REMARK  154  A    between atoms: _367  and  _370
REMARK  155  A    between atoms: _370  and  _371
REMARK  156  A    between atoms: _374  and  _376
REMARK  157  A    between atoms: _376  and  _377
REMARK  158  A    between atoms: _376  and  _379
REMARK  159  A    between atoms: _382  and  _384
REMARK  160  A    between atoms: _384  and  _385
REMARK  161  A    between atoms: _384  and  _387
REMARK  162  A    between atoms: _387  and  _388
REMARK  163  A    between atoms: _388  and  _389
REMARK  164  A    between atoms: _389  and  _390
REMARK  165  A    between atoms: _390  and  _391
REMARK  166  A    between atoms: _395  and  _397
REMARK  167  A    between atoms: _397  and  _398
REMARK  168  A    between atoms: _397  and  _400
REMARK  169  A    between atoms: _400  and  _401
REMARK  170  A    between atoms: _401  and  _402
REMARK  171  A    between atoms: _404  and  _406
REMARK  172  A    between atoms: _406  and  _407
REMARK  173  A    between atoms: _406  and  _409
REMARK  174  A    between atoms: _409  and  _410
REMARK  175  A    between atoms: _413  and  _415
REMARK  176  A    between atoms: _415  and  _416
REMARK  177  A    between atoms: _418  and  _420
REMARK  178  A    between atoms: _420  and  _421
REMARK  179  A    between atoms: _423  and  _425
REMARK  180  A    between atoms: _425  and  _426
REMARK  181  A    between atoms: _425  and  _428
REMARK  182  A    between atoms: _428  and  _429
REMARK  183  A    between atoms: _432  and  _434
REMARK  184  A    between atoms: _434  and  _435
REMARK  185  A    between atoms: _437  and  _439
REMARK  186  A    between atoms: _439  and  _440
REMARK  187  A    between atoms: _442  and  _444
REMARK  188  A    between atoms: _444  and  _445
REMARK  189  A    between atoms: _444  and  _447
REMARK  190  A    between atoms: _447  and  _448
REMARK  191  A    between atoms: _454  and  _456
REMARK  192  A    between atoms: _456  and  _457
REMARK  193  A    between atoms: _456  and  _459
REMARK  194  A    between atoms: _459  and  _460
REMARK  195  A    between atoms: _463  and  _465
REMARK  196  A    between atoms: _465  and  _466
REMARK  197  A    between atoms: _465  and  _468
REMARK  198  A    between atoms: _471  and  _473
REMARK  199  A    between atoms: _473  and  _474
REMARK  200  A    between atoms: _473  and  _476
REMARK  201  A    between atoms: _476  and  _477
REMARK  202  A    between atoms: _480  and  _482
REMARK  203  A    between atoms: _482  and  _483
REMARK  204  A    between atoms: _482  and  _485
REMARK  205  A    between atoms: _485  and  _486
REMARK  206  A    between atoms: _490  and  _491
REMARK  207  A    between atoms: _496  and  _498
REMARK  208  A    between atoms: _498  and  _499
REMARK  209  A    between atoms: _498  and  _501
REMARK  210  A    between atoms: _504  and  _506
REMARK  211  A    between atoms: _506  and  _507
REMARK  212  A    between atoms: _506  and  _509
REMARK  213  A    between atoms: _509  and  _510
REMARK  214  A    between atoms: _515  and  _517
REMARK  215  A    between atoms: _517  and  _518
REMARK  216  A    between atoms: _517  and  _520
REMARK  217  A    between atoms: _520  and  _521
REMARK  218  A    between atoms: _524  and  _526
REMARK  219  A    between atoms: _526  and  _527
REMARK  220  A    between atoms: _526  and  _529
REMARK  221  A    between atoms: _529  and  _530
REMARK  222  A    between atoms: _533  and  _535
REMARK  223  A    between atoms: _535  and  _536
REMARK  224  A    between atoms: _538  and  _540
REMARK  225  A    between atoms: _540  and  _541
REMARK  226  A    between atoms: _540  and  _543
REMARK  227  A    between atoms: _543  and  _544
REMARK  228  A    between atoms: _544  and  _545
REMARK  229  A    between atoms: _545  and  _546
REMARK  230  A    between atoms: _555  and  _557
REMARK  231  A    between atoms: _557  and  _558
REMARK  232  A    between atoms: _557  and  _560
REMARK  233  A    between atoms: _560  and  _561
REMARK                            x       y       z     vdW  Elec       q    Type
REMARK                         _______ _______ _______ _____ _____    ______ ____
ROOT
ATOM      1  C   ILE A   5      14.474  22.068  27.252  0.00  0.00    +0.241 C 
ATOM      2  O   ILE A   5      13.991  20.975  27.543  0.00  0.00    -0.273 OA
ATOM      3  N   ILE A   6      13.843  23.215  27.477  0.00  0.00    -0.297 N 
ATOM      4  H   ILE A   6      14.310  24.116  27.248  0.00  0.00    +0.150 HD
ENDROOT
BRANCH   1   5
ATOM      5  CA  ILE A   5      15.850  22.162  26.601  0.00  0.00    +0.149 C 
BRANCH   5   8
ATOM      6  C   ASN A   4      17.880  22.238  27.941  0.00  0.00    +0.241 C 
ATOM      7  O   ASN A   4      17.929  23.467  27.889  0.00  0.00    -0.273 OA
ATOM      8  N   ILE A   5      16.918  21.530  27.365  0.00  0.00    -0.297 N 
ATOM      9  H   ILE A   5      16.926  20.494  27.461  0.00  0.00    +0.150 HD
BRANCH   6  10
ATOM     10  CA  ASN A   4      18.967  21.443  28.672  0.00  0.00    +0.158 C 
BRANCH  10  12
ATOM     11  C   VAL A   3      20.569  21.558  26.876  0.00  0.00    +0.241 C 
ATOM     12  N   ASN A   4      20.232  21.904  28.116  0.00  0.00    -0.297 N 
ATOM     13  H   ASN A   4      20.868  22.500  28.684  0.00  0.00    +0.150 HD
ATOM     14  O   VAL A   3      19.872  20.808  26.189  0.00  0.00    -0.273 OA
BRANCH  11  15
ATOM     15  CA  VAL A   3      21.877  22.118  26.324  0.00  0.00    +0.149 C 
BRANCH  15  18
ATOM     16  C   PRO A   2      23.477  21.254  24.674  0.00  0.00    +0.241 C 
ATOM     17  O   PRO A   2      24.439  21.784  25.227  0.00  0.00    -0.273 OA
ATOM     18  N   VAL A   3      22.227  21.364  25.118  0.00  0.00    -0.297 N 
ATOM     19  H   VAL A   3      21.467  20.895  24.586  0.00  0.00    +0.150 HD
BRANCH  16  23
ATOM     20  C   THR A   1      22.607  18.356  24.178  0.00  0.00    +0.244 C 
ATOM     21  O   THR A   1      23.362  18.302  25.145  0.00  0.00    -0.273 OA
ATOM     22  N   PRO A   2      22.680  19.348  23.277  0.00  0.00    -0.272 N 
ATOM     23  CA  PRO A   2      23.669  20.424  23.410  0.00  0.00    +0.152 C 
ATOM     24  CB  PRO A   2      23.459  21.243  22.138  0.00  0.00    +0.031 C 
ATOM     25  CG  PRO A   2      22.003  21.061  21.859  0.00  0.00    +0.024 C 
ATOM     26  CD  PRO A   2      21.818  19.576  22.104  0.00  0.00    +0.094 C 
BRANCH  20  27
ATOM     27  CA  THR A   1      21.546  17.277  23.956  0.00  0.00    +0.172 C 
BRANCH  27  28
ATOM     28  N   THR A   1      22.043  15.990  24.418  0.00  0.00    -0.236 NA
ATOM     29  H   THR A   1      22.392  15.901  25.394  0.00  0.00    +0.142 HD
ENDBRANCH  27  28
BRANCH  27  30
ATOM     30  CB  THR A   1      20.260  17.660  24.710  0.00  0.00    +0.135 C 
ATOM     31  CG2 THR A   1      20.512  17.695  26.211  0.00  0.00    +0.034 C 
BRANCH  30  32
ATOM     32  OG1 THR A   1      19.814  18.948  24.272  0.00  0.00    -0.383 OA
ATOM     33  HG1 THR A   1      20.517  19.620  24.456  0.00  0.00    +0.210 HD
ENDBRANCH  30  32
ENDBRANCH  27  30
ENDBRANCH  20  27
ENDBRANCH  16  23
ENDBRANCH  15  18
BRANCH  15  34
ATOM     34  CB  VAL A   3      21.646  23.616  26.011  0.00  0.00    +0.027 C 
ATOM     35  CG2 VAL A   3      22.925  24.255  25.481  0.00  0.00    +0.002 C 
ATOM     36  CG1 VAL A   3      20.516  23.763  25.003  0.00  0.00    +0.002 C 
ENDBRANCH  15  34
ENDBRANCH  11  15
ENDBRANCH  10  12
BRANCH  10  37
ATOM     37  CB  ASN A   4      18.900  21.694  30.182  0.00  0.00    +0.114 C 
BRANCH  37  38
ATOM     38  CG  ASN A   4      19.884  20.834  30.960  0.00  0.00    +0.222 C 
ATOM     39  ND2 ASN A   4      20.548  21.438  31.939  0.00  0.00    -0.329 N 
ATOM     40 HD21 ASN A   4      21.232  20.903  32.511  0.00  0.00    +0.145 HD
ATOM     41 HD22 ASN A   4      20.384  22.446  32.134  0.00  0.00    +0.145 HD
ATOM     42  OD1 ASN A   4      20.041  19.640  30.687  0.00  0.00    -0.275 OA
ENDBRANCH  37  38
ENDBRANCH  10  37
ENDBRANCH   6  10
ENDBRANCH   5   8
BRANCH   5  43
ATOM     43  CB  ILE A   5      15.737  21.524  25.192  0.00  0.00    +0.027 C 
ATOM     44  CG2 ILE A   5      14.583  22.167  24.411  0.00  0.00    +0.002 C 
BRANCH  43  45
ATOM     45  CG1 ILE A   5      17.057  21.691  24.435  0.00  0.00    +0.002 C 
ATOM     46  CD1 ILE A   5      17.113  20.946  23.124  0.00  0.00    +0.000 C 
ENDBRANCH  43  45
ENDBRANCH   5  43
ENDBRANCH   1   5
BRANCH   3  47
ATOM     47  CA  ILE A   6      12.503  23.218  28.041  0.00  0.00    +0.149 C 
BRANCH  47  48
ATOM     48  C   ILE A   6      11.589  23.447  26.845  0.00  0.00    +0.241 C 
ATOM     49  N   GLY A   7      10.984  22.364  26.370  0.00  0.00    -0.295 N 
ATOM     50  H   GLY A   7      11.134  21.448  26.839  0.00  0.00    +0.150 HD
ATOM     51  O   ILE A   6      11.447  24.574  26.359  0.00  0.00    -0.273 OA
BRANCH  49  52
ATOM     52  CA  GLY A   7      10.118  22.436  25.210  0.00  0.00    +0.176 C 
BRANCH  52  53
ATOM     53  C   GLY A   7       8.678  22.819  25.470  0.00  0.00    +0.243 C 
ATOM     54  O   GLY A   7       8.276  23.106  26.602  0.00  0.00    -0.273 OA
ATOM     55  N   ARG A   8       7.890  22.801  24.401  0.00  0.00    -0.297 N 
ATOM     56  H   ARG A   8       8.287  22.502  23.487  0.00  0.00    +0.150 HD
BRANCH  55  57
ATOM     57  CA  ARG A   8       6.487  23.187  24.470  0.00  0.00    +0.149 C 
BRANCH  57  58
ATOM     58  C   ARG A   8       5.634  22.443  25.490  0.00  0.00    +0.241 C 
ATOM     59  O   ARG A   8       4.757  23.046  26.113  0.00  0.00    -0.273 OA
ATOM     60  N   ASN A   9       5.875  21.146  25.673  0.00  0.00    -0.298 N 
ATOM     61  H   ASN A   9       6.636  20.676  25.142  0.00  0.00    +0.150 HD
BRANCH  60  62
ATOM     62  CA  ASN A   9       5.067  20.387  26.621  0.00  0.00    +0.146 C 
BRANCH  62  63
ATOM     63  C   ASN A   9       5.055  21.023  28.014  0.00  0.00    +0.227 C 
ATOM     64  O   ASN A   9       4.039  20.975  28.712  0.00  0.00    -0.286 OA
ENDBRANCH  62  63
BRANCH  62  65
ATOM     65  CB  ASN A   9       5.545  18.929  26.712  0.00  0.00    +0.112 C 
BRANCH  65  66
ATOM     66  CG  ASN A   9       6.848  18.783  27.483  0.00  0.00    +0.222 C 
ATOM     67  ND2 ASN A   9       6.813  17.993  28.558  0.00  0.00    -0.329 N 
ATOM     68 HD21 ASN A   9       7.673  17.848  29.125  0.00  0.00    +0.145 HD
ATOM     69 HD22 ASN A   9       5.926  17.522  28.828  0.00  0.00    +0.145 HD
ATOM     70  OD1 ASN A   9       7.873  19.367  27.116  0.00  0.00    -0.275 OA
ENDBRANCH  65  66
ENDBRANCH  62  65
ENDBRANCH  60  62
ENDBRANCH  57  58
BRANCH  57  71
ATOM     71  CB  ARG A   8       5.844  23.079  23.076  0.00  0.00    +0.033 C 
BRANCH  71  72
ATOM     72  CG  ARG A   8       6.356  24.126  22.080  0.00  0.00    +0.045 C 
BRANCH  72  73
ATOM     73  CD  ARG A   8       5.528  24.173  20.777  0.00  0.00    +0.174 C 
BRANCH  73  74
ATOM     74  NE  ARG A   8       5.623  22.934  20.008  0.00  0.00    -0.265 N 
ATOM     75  CZ  ARG A   8       4.715  21.961  20.032  0.00  0.00    +0.342 C 
ATOM     76  NH2 ARG A   8       3.627  22.077  20.784  0.00  0.00    -0.292 N 
ATOM     77 HH21 ARG A   8       3.481  22.931  21.358  0.00  0.00    +0.255 HD
ATOM     78 HH22 ARG A   8       2.921  21.313  20.799  0.00  0.00    +0.255 HD
ATOM     79  NH1 ARG A   8       4.903  20.861  19.312  0.00  0.00    -0.292 N 
ATOM     80 HH11 ARG A   8       4.194  20.100  19.330  0.00  0.00    +0.255 HD
ATOM     81 HH12 ARG A   8       5.759  20.760  18.730  0.00  0.00    +0.255 HD
ATOM     82  HE  ARG A   8       6.457  22.804  19.400  0.00  0.00    +0.259 HD
ENDBRANCH  73  74
ENDBRANCH  72  73
ENDBRANCH  71  72
ENDBRANCH  57  71
ENDBRANCH  55  57
ENDBRANCH  52  53
ENDBRANCH  49  52
ENDBRANCH  47  48
BRANCH  47  83
ATOM     83  CB  ILE A   6      12.301  24.349  29.053  0.00  0.00    +0.027 C 
ATOM     84  CG2 ILE A   6      10.871  24.304  29.585  0.00  0.00    +0.002 C 
BRANCH  83  85
ATOM     85  CG1 ILE A   6      13.327  24.229  30.190  0.00  0.00    +0.002 C 
ATOM     86  CD1 ILE A   6      13.352  22.876  30.888  0.00  0.00    +0.000 C 
ENDBRANCH  83  85
ENDBRANCH  47  83
ENDBRANCH   3  47
TORSDOF 32
REMARK  Name = ../refined-set-2016/1mrw/1mrw_pocket.pdb
REMARK  233 active torsions:
REMARK  status: ('A' for Active; 'I' for Inactive)
REMARK    1  A    between atoms: _1  and  _3
REMARK    2  A    between atoms: _3  and  _4
REMARK    3  A    between atoms: _3  and  _6
REMARK    4  A    between atoms: _6  and  _7
REMARK    5  A    between atoms: _7  and  _8
REMARK    6  A    between atoms: _8  and  _9
REMARK    7  A    between atoms: _18  and  _20
REMARK    8  A    between atoms: _20  and  _21
REMARK    9  A    between atoms: _20  and  _23
REMARK   10  A    between atoms: _23  and  _24
REMARK   11  A    between atoms: _27  and  _29
REMARK   12  A    between atoms: _29  and  _30
REMARK   13  A    between atoms: _29  and  _32
REMARK   14  A    between atoms: _32  and  _33
REMARK   15  A    between atoms: _36  and  _38
REMARK   16  A    between atoms: _38  and  _39
REMARK   17  A    between atoms: _38  and  _41
REMARK   18  A    between atoms: _41  and  _42
REMARK   19  A    between atoms: _45  and  _47
REMARK   20  A    between atoms: _47  and  _48
REMARK   21  A    between atoms: _47  and  _50
REMARK   22  A    between atoms: _50  and  _51
REMARK   23  A    between atoms: _54  and  _56
REMARK   24  A    between atoms: _56  and  _57
REMARK   25  A    between atoms: _56  and  _59
REMARK   26  A    between atoms: _59  and  _60
REMARK   27  A    between atoms: _63  and  _65
REMARK   28  A    between atoms: _65  and  _66
REMARK   29  A    between atoms: _68  and  _70
REMARK   30  A    between atoms: _70  and  _71
REMARK   31  A    between atoms: _74  and  _76
REMARK   32  A    between atoms: _76  and  _77
REMARK   33  A    between atoms: _76  and  _79
REMARK   34  A    between atoms: _79  and  _80
REMARK   35  A    between atoms: _83  and  _85
REMARK   36  A    between atoms: _85  and  _86
REMARK   37  A    between atoms: _85  and  _88
REMARK   38  A    between atoms: _88  and  _89
REMARK   39  A    between atoms: _92  and  _94
REMARK   40  A    between atoms: _94  and  _95
REMARK   41  A    between atoms: _94  and  _97
REMARK   42  A    between atoms: _97  and  _98
REMARK   43  A    between atoms: _101  and  _103
REMARK   44  A    between atoms: _103  and  _104
REMARK   45  A    between atoms: _103  and  _106
REMARK   46  A    between atoms: _109  and  _111
REMARK   47  A    between atoms: _111  and  _112
REMARK   48  A    between atoms: _111  and  _114
REMARK   49  A    between atoms: _114  and  _115
REMARK   50  A    between atoms: _115  and  _116
REMARK   51  A    between atoms: _116  and  _117
REMARK   52  A    between atoms: _117  and  _118
REMARK   53  A    between atoms: _122  and  _124
REMARK   54  A    between atoms: _124  and  _125
REMARK   55  A    between atoms: _124  and  _127
REMARK   56  A    between atoms: _127  and  _128
REMARK   57  A    between atoms: _128  and  _129
REMARK   58  A    between atoms: _131  and  _133
REMARK   59  A    between atoms: _133  and  _134
REMARK   60  A    between atoms: _133  and  _136
REMARK   61  A    between atoms: _136  and  _137
REMARK   62  A    between atoms: _140  and  _142
REMARK   63  A    between atoms: _142  and  _143
REMARK   64  A    between atoms: _145  and  _147
REMARK   65  A    between atoms: _147  and  _148
REMARK   66  A    between atoms: _150  and  _152
REMARK   67  A    between atoms: _152  and  _153
REMARK   68  A    between atoms: _152  and  _155
REMARK   69  A    between atoms: _155  and  _156
REMARK   70  A    between atoms: _159  and  _161
REMARK   71  A    between atoms: _161  and  _162
REMARK   72  A    between atoms: _164  and  _166
REMARK   73  A    between atoms: _166  and  _167
REMARK   74  A    between atoms: _169  and  _171
REMARK   75  A    between atoms: _171  and  _172
REMARK   76  A    between atoms: _171  and  _174
REMARK   77  A    between atoms: _174  and  _175
REMARK   78  A    between atoms: _181  and  _183
REMARK   79  A    between atoms: _183  and  _184
REMARK   80  A    between atoms: _183  and  _186
REMARK   81  A    between atoms: _186  and  _187
REMARK   82  A    between atoms: _190  and  _192
REMARK   83  A    between atoms: _192  and  _193
REMARK   84  A    between atoms: _192  and  _195
REMARK   85  A    between atoms: _195  and  _196
REMARK   86  A    between atoms: _199  and  _201
REMARK   87  A    between atoms: _201  and  _202
REMARK   88  A    between atoms: _201  and  _204
REMARK   89  A    between atoms: _204  and  _205
REMARK   90  A    between atoms: _209  and  _210
REMARK   91  A    between atoms: _215  and  _217
REMARK   92  A    between atoms: _217  and  _218
REMARK   93  A    between atoms: _217  and  _220
REMARK   94  A    between atoms: _223  and  _225
REMARK   95  A    between atoms: _225  and  _226
REMARK   96  A    between atoms: _225  and  _228
REMARK   97  A    between atoms: _228  and  _229
REMARK   98  A    between atoms: _234  and  _236
REMARK   99  A    between atoms: _236  and  _237
REMARK  100  A    between atoms: _236  and  _239
REMARK  101  A    between atoms: _239  and  _240
REMARK  102  A    between atoms: _243  and  _245
REMARK  103  A    between atoms: _245  and  _246
REMARK  104  A    between atoms: _245  and  _248
REMARK  105  A    between atoms: _248  and  _249
REMARK  106  A    between atoms: _252  and  _254
REMARK  107  A    between atoms: _254  and  _255
REMARK  108  A    between atoms: _257  and  _259
REMARK  109  A    between atoms: _259  and  _260
REMARK  110  A    between atoms: _259  and  _262
REMARK  111  A    between atoms: _262  and  _263
REMARK  112  A    between atoms: _263  and  _264
REMARK  113  A    between atoms: _264  and  _265
REMARK  114  A    between atoms: _274  and  _276
REMARK  115  A    between atoms: _276  and  _277
REMARK  116  A    between atoms: _276  and  _279
REMARK  117  A    between atoms: _279  and  _280
REMARK  118  A    between atoms: _280  and  _281
REMARK  119  A    between atoms: _281  and  _282
REMARK  120  A    between atoms: _291  and  _293
REMARK  121  A    between atoms: _293  and  _294
REMARK  122  A    between atoms: _293  and  _296
REMARK  123  A    between atoms: _296  and  _297
REMARK  124  A    between atoms: _300  and  _302
REMARK  125  A    between atoms: _302  and  _303
REMARK  126  A    between atoms: _302  and  _305
REMARK  127  A    between atoms: _305  and  _306
REMARK  128  A    between atoms: _309  and  _311
REMARK  129  A    between atoms: _311  and  _312
REMARK  130  A    between atoms: _311  and  _314
REMARK  131  A    between atoms: _314  and  _315
REMARK  132  A    between atoms: _318  and  _320
REMARK  133  A    between atoms: _320  and  _321
REMARK  134  A    between atoms: _320  and  _323
REMARK  135  A    between atoms: _323  and  _324
REMARK  136  A    between atoms: _327  and  _329
REMARK  137  A    between atoms: _329  and  _330
REMARK  138  A    between atoms: _329  and  _332
REMARK  139  A    between atoms: _332  and  _333
REMARK  140  A    between atoms: _336  and  _338
REMARK  141  A    between atoms: _338  and  _339
REMARK  142  A    between atoms: _341  and  _343
REMARK  143  A    between atoms: _343  and  _344
REMARK  144  A    between atoms: _347  and  _349
REMARK  145  A    between atoms: _349  and  _350
REMARK  146  A    between atoms: _349  and  _352
REMARK  147  A    between atoms: _352  and  _353
REMARK  148  A    between atoms: _356  and  _358
REMARK  149  A    between atoms: _358  and  _359
REMARK  150  A    between atoms: _358  and  _361
REMARK  151  A    between atoms: _361  and  _362
REMARK  152  A    between atoms: _365  and  _367
REMARK  153  A    between atoms: _367  and  _368
REMARK  154  A    between atoms: _367  and  _370
REMARK  155  A    between atoms: _370  and  _371
REMARK  156  A    between atoms: _374  and  _376
REMARK  157  A    between atoms: _376  and  _377
REMARK  158  A    between atoms: _376  and  _379
REMARK  159  A    between atoms: _382  and  _384
REMARK  160  A    between atoms: _384  and  _385
REMARK  161  A    between atoms: _384  and  _387
REMARK  162  A    between atoms: _387  and  _388
REMARK  163  A    between atoms: _388  and  _389
REMARK  164  A    between atoms: _389  and  _390
REMARK  165  A    between atoms: _390  and  _391
REMARK  166  A    between atoms: _395  and  _397
REMARK  167  A    between atoms: _397  and  _398
REMARK  168  A    between atoms: _397  and  _400
REMARK  169  A    between atoms: _400  and  _401
REMARK  170  A    between atoms: _401  and  _402
REMARK  171  A    between atoms: _404  and  _406
REMARK  172  A    between atoms: _406  and  _407
REMARK  173  A    between atoms: _406  and  _409
REMARK  174  A    between atoms: _409  and  _410
REMARK  175  A    between atoms: _413  and  _415
REMARK  176  A    between atoms: _415  and  _416
REMARK  177  A    between atoms: _418  and  _420
REMARK  178  A    between atoms: _420  and  _421
REMARK  179  A    between atoms: _423  and  _425
REMARK  180  A    between atoms: _425  and  _426
REMARK  181  A    between atoms: _425  and  _428
REMARK  182  A    between atoms: _428  and  _429
REMARK  183  A    between atoms: _432  and  _434
REMARK  184  A    between atoms: _434  and  _435
REMARK  185  A    between atoms: _437  and  _439
REMARK  186  A    between atoms: _439  and  _440
REMARK  187  A    between atoms: _442  and  _444
REMARK  188  A    between atoms: _444  and  _445
REMARK  189  A    between atoms: _444  and  _447
REMARK  190  A    between atoms: _447  and  _448
REMARK  191  A    between atoms: _454  and  _456
REMARK  192  A    between atoms: _456  and  _457
REMARK  193  A    between atoms: _456  and  _459
REMARK  194  A    between atoms: _459  and  _460
REMARK  195  A    between atoms: _463  and  _465
REMARK  196  A    between atoms: _465  and  _466
REMARK  197  A    between atoms: _465  and  _468
REMARK  198  A    between atoms: _471  and  _473
REMARK  199  A    between atoms: _473  and  _474
REMARK  200  A    between atoms: _473  and  _476
REMARK  201  A    between atoms: _476  and  _477
REMARK  202  A    between atoms: _480  and  _482
REMARK  203  A    between atoms: _482  and  _483
REMARK  204  A    between atoms: _482  and  _485
REMARK  205  A    between atoms: _485  and  _486
REMARK  206  A    between atoms: _490  and  _491
REMARK  207  A    between atoms: _496  and  _498
REMARK  208  A    between atoms: _498  and  _499
REMARK  209  A    between atoms: _498  and  _501
REMARK  210  A    between atoms: _504  and  _506
REMARK  211  A    between atoms: _506  and  _507
REMARK  212  A    between atoms: _506  and  _509
REMARK  213  A    between atoms: _509  and  _510
REMARK  214  A    between atoms: _515  and  _517
REMARK  215  A    between atoms: _517  and  _518
REMARK  216  A    between atoms: _517  and  _520
REMARK  217  A    between atoms: _520  and  _521
REMARK  218  A    between atoms: _524  and  _526
REMARK  219  A    between atoms: _526  and  _527
REMARK  220  A    between atoms: _526  and  _529
REMARK  221  A    between atoms: _529  and  _530
REMARK  222  A    between atoms: _533  and  _535
REMARK  223  A    between atoms: _535  and  _536
REMARK  224  A    between atoms: _538  and  _540
REMARK  225  A    between atoms: _540  and  _541
REMARK  226  A    between atoms: _540  and  _543
REMARK  227  A    between atoms: _543  and  _544
REMARK  228  A    between atoms: _544  and  _545
REMARK  229  A    between atoms: _545  and  _546
REMARK  230  A    between atoms: _555  and  _557
REMARK  231  A    between atoms: _557  and  _558
REMARK  232  A    between atoms: _557  and  _560
REMARK  233  A    between atoms: _560  and  _561
REMARK                            x       y       z     vdW  Elec       q    Type
REMARK                         _______ _______ _______ _____ _____    ______ ____
ROOT
ATOM      1  O   HOH     1      18.267  30.569  21.772  0.00  0.00    +0.000 OA
ENDROOT
TORSDOF 0
REMARK  Name = ../refined-set-2016/1mrw/1mrw_pocket.pdb
REMARK  233 active torsions:
REMARK  status: ('A' for Active; 'I' for Inactive)
REMARK    1  A    between atoms: _1  and  _3
REMARK    2  A    between atoms: _3  and  _4
REMARK    3  A    between atoms: _3  and  _6
REMARK    4  A    between atoms: _6  and  _7
REMARK    5  A    between atoms: _7  and  _8
REMARK    6  A    between atoms: _8  and  _9
REMARK    7  A    between atoms: _18  and  _20
REMARK    8  A    between atoms: _20  and  _21
REMARK    9  A    between atoms: _20  and  _23
REMARK   10  A    between atoms: _23  and  _24
REMARK   11  A    between atoms: _27  and  _29
REMARK   12  A    between atoms: _29  and  _30
REMARK   13  A    between atoms: _29  and  _32
REMARK   14  A    between atoms: _32  and  _33
REMARK   15  A    between atoms: _36  and  _38
REMARK   16  A    between atoms: _38  and  _39
REMARK   17  A    between atoms: _38  and  _41
REMARK   18  A    between atoms: _41  and  _42
REMARK   19  A    between atoms: _45  and  _47
REMARK   20  A    between atoms: _47  and  _48
REMARK   21  A    between atoms: _47  and  _50
REMARK   22  A    between atoms: _50  and  _51
REMARK   23  A    between atoms: _54  and  _56
REMARK   24  A    between atoms: _56  and  _57
REMARK   25  A    between atoms: _56  and  _59
REMARK   26  A    between atoms: _59  and  _60
REMARK   27  A    between atoms: _63  and  _65
REMARK   28  A    between atoms: _65  and  _66
REMARK   29  A    between atoms: _68  and  _70
REMARK   30  A    between atoms: _70  and  _71
REMARK   31  A    between atoms: _74  and  _76
REMARK   32  A    between atoms: _76  and  _77
REMARK   33  A    between atoms: _76  and  _79
REMARK   34  A    between atoms: _79  and  _80
REMARK   35  A    between atoms: _83  and  _85
REMARK   36  A    between atoms: _85  and  _86
REMARK   37  A    between atoms: _85  and  _88
REMARK   38  A    between atoms: _88  and  _89
REMARK   39  A    between atoms: _92  and  _94
REMARK   40  A    between atoms: _94  and  _95
REMARK   41  A    between atoms: _94  and  _97
REMARK   42  A    between atoms: _97  and  _98
REMARK   43  A    between atoms: _101  and  _103
REMARK   44  A    between atoms: _103  and  _104
REMARK   45  A    between atoms: _103  and  _106
REMARK   46  A    between atoms: _109  and  _111
REMARK   47  A    between atoms: _111  and  _112
REMARK   48  A    between atoms: _111  and  _114
REMARK   49  A    between atoms: _114  and  _115
REMARK   50  A    between atoms: _115  and  _116
REMARK   51  A    between atoms: _116  and  _117
REMARK   52  A    between atoms: _117  and  _118
REMARK   53  A    between atoms: _122  and  _124
REMARK   54  A    between atoms: _124  and  _125
REMARK   55  A    between atoms: _124  and  _127
REMARK   56  A    between atoms: _127  and  _128
REMARK   57  A    between atoms: _128  and  _129
REMARK   58  A    between atoms: _131  and  _133
REMARK   59  A    between atoms: _133  and  _134
REMARK   60  A    between atoms: _133  and  _136
REMARK   61  A    between atoms: _136  and  _137
REMARK   62  A    between atoms: _140  and  _142
REMARK   63  A    between atoms: _142  and  _143
REMARK   64  A    between atoms: _145  and  _147
REMARK   65  A    between atoms: _147  and  _148
REMARK   66  A    between atoms: _150  and  _152
REMARK   67  A    between atoms: _152  and  _153
REMARK   68  A    between atoms: _152  and  _155
REMARK   69  A    between atoms: _155  and  _156
REMARK   70  A    between atoms: _159  and  _161
REMARK   71  A    between atoms: _161  and  _162
REMARK   72  A    between atoms: _164  and  _166
REMARK   73  A    between atoms: _166  and  _167
REMARK   74  A    between atoms: _169  and  _171
REMARK   75  A    between atoms: _171  and  _172
REMARK   76  A    between atoms: _171  and  _174
REMARK   77  A    between atoms: _174  and  _175
REMARK   78  A    between atoms: _181  and  _183
REMARK   79  A    between atoms: _183  and  _184
REMARK   80  A    between atoms: _183  and  _186
REMARK   81  A    between atoms: _186  and  _187
REMARK   82  A    between atoms: _190  and  _192
REMARK   83  A    between atoms: _192  and  _193
REMARK   84  A    between atoms: _192  and  _195
REMARK   85  A    between atoms: _195  and  _196
REMARK   86  A    between atoms: _199  and  _201
REMARK   87  A    between atoms: _201  and  _202
REMARK   88  A    between atoms: _201  and  _204
REMARK   89  A    between atoms: _204  and  _205
REMARK   90  A    between atoms: _209  and  _210
REMARK   91  A    between atoms: _215  and  _217
REMARK   92  A    between atoms: _217  and  _218
REMARK   93  A    between atoms: _217  and  _220
REMARK   94  A    between atoms: _223  and  _225
REMARK   95  A    between atoms: _225  and  _226
REMARK   96  A    between atoms: _225  and  _228
REMARK   97  A    between atoms: _228  and  _229
REMARK   98  A    between atoms: _234  and  _236
REMARK   99  A    between atoms: _236  and  _237
REMARK  100  A    between atoms: _236  and  _239
REMARK  101  A    between atoms: _239  and  _240
REMARK  102  A    between atoms: _243  and  _245
REMARK  103  A    between atoms: _245  and  _246
REMARK  104  A    between atoms: _245  and  _248
REMARK  105  A    between atoms: _248  and  _249
REMARK  106  A    between atoms: _252  and  _254
REMARK  107  A    between atoms: _254  and  _255
REMARK  108  A    between atoms: _257  and  _259
REMARK  109  A    between atoms: _259  and  _260
REMARK  110  A    between atoms: _259  and  _262
REMARK  111  A    between atoms: _262  and  _263
REMARK  112  A    between atoms: _263  and  _264
REMARK  113  A    between atoms: _264  and  _265
REMARK  114  A    between atoms: _274  and  _276
REMARK  115  A    between atoms: _276  and  _277
REMARK  116  A    between atoms: _276  and  _279
REMARK  117  A    between atoms: _279  and  _280
REMARK  118  A    between atoms: _280  and  _281
REMARK  119  A    between atoms: _281  and  _282
REMARK  120  A    between atoms: _291  and  _293
REMARK  121  A    between atoms: _293  and  _294
REMARK  122  A    between atoms: _293  and  _296
REMARK  123  A    between atoms: _296  and  _297
REMARK  124  A    between atoms: _300  and  _302
REMARK  125  A    between atoms: _302  and  _303
REMARK  126  A    between atoms: _302  and  _305
REMARK  127  A    between atoms: _305  and  _306
REMARK  128  A    between atoms: _309  and  _311
REMARK  129  A    between atoms: _311  and  _312
REMARK  130  A    between atoms: _311  and  _314
REMARK  131  A    between atoms: _314  and  _315
REMARK  132  A    between atoms: _318  and  _320
REMARK  133  A    between atoms: _320  and  _321
REMARK  134  A    between atoms: _320  and  _323
REMARK  135  A    between atoms: _323  and  _324
REMARK  136  A    between atoms: _327  and  _329
REMARK  137  A    between atoms: _329  and  _330
REMARK  138  A    between atoms: _329  and  _332
REMARK  139  A    between atoms: _332  and  _333
REMARK  140  A    between atoms: _336  and  _338
REMARK  141  A    between atoms: _338  and  _339
REMARK  142  A    between atoms: _341  and  _343
REMARK  143  A    between atoms: _343  and  _344
REMARK  144  A    between atoms: _347  and  _349
REMARK  145  A    between atoms: _349  and  _350
REMARK  146  A    between atoms: _349  and  _352
REMARK  147  A    between atoms: _352  and  _353
REMARK  148  A    between atoms: _356  and  _358
REMARK  149  A    between atoms: _358  and  _359
REMARK  150  A    between atoms: _358  and  _361
REMARK  151  A    between atoms: _361  and  _362
REMARK  152  A    between atoms: _365  and  _367
REMARK  153  A    between atoms: _367  and  _368
REMARK  154  A    between atoms: _367  and  _370
REMARK  155  A    between atoms: _370  and  _371
REMARK  156  A    between atoms: _374  and  _376
REMARK  157  A    between atoms: _376  and  _377
REMARK  158  A    between atoms: _376  and  _379
REMARK  159  A    between atoms: _382  and  _384
REMARK  160  A    between atoms: _384  and  _385
REMARK  161  A    between atoms: _384  and  _387
REMARK  162  A    between atoms: _387  and  _388
REMARK  163  A    between atoms: _388  and  _389
REMARK  164  A    between atoms: _389  and  _390
REMARK  165  A    between atoms: _390  and  _391
REMARK  166  A    between atoms: _395  and  _397
REMARK  167  A    between atoms: _397  and  _398
REMARK  168  A    between atoms: _397  and  _400
REMARK  169  A    between atoms: _400  and  _401
REMARK  170  A    between atoms: _401  and  _402
REMARK  171  A    between atoms: _404  and  _406
REMARK  172  A    between atoms: _406  and  _407
REMARK  173  A    between atoms: _406  and  _409
REMARK  174  A    between atoms: _409  and  _410
REMARK  175  A    between atoms: _413  and  _415
REMARK  176  A    between atoms: _415  and  _416
REMARK  177  A    between atoms: _418  and  _420
REMARK  178  A    between atoms: _420  and  _421
REMARK  179  A    between atoms: _423  and  _425
REMARK  180  A    between atoms: _425  and  _426
REMARK  181  A    between atoms: _425  and  _428
REMARK  182  A    between atoms: _428  and  _429
REMARK  183  A    between atoms: _432  and  _434
REMARK  184  A    between atoms: _434  and  _435
REMARK  185  A    between atoms: _437  and  _439
REMARK  186  A    between atoms: _439  and  _440
REMARK  187  A    between atoms: _442  and  _444
REMARK  188  A    between atoms: _444  and  _445
REMARK  189  A    between atoms: _444  and  _447
REMARK  190  A    between atoms: _447  and  _448
REMARK  191  A    between atoms: _454  and  _456
REMARK  192  A    between atoms: _456  and  _457
REMARK  193  A    between atoms: _456  and  _459
REMARK  194  A    between atoms: _459  and  _460
REMARK  195  A    between atoms: _463  and  _465
REMARK  196  A    between atoms: _465  and  _466
REMARK  197  A    between atoms: _465  and  _468
REMARK  198  A    between atoms: _471  and  _473
REMARK  199  A    between atoms: _473  and  _474
REMARK  200  A    between atoms: _473  and  _476
REMARK  201  A    between atoms: _476  and  _477
REMARK  202  A    between atoms: _480  and  _482
REMARK  203  A    between atoms: _482  and  _483
REMARK  204  A    between atoms: _482  and  _485
REMARK  205  A    between atoms: _485  and  _486
REMARK  206  A    between atoms: _490  and  _491
REMARK  207  A    between atoms: _496  and  _498
REMARK  208  A    between atoms: _498  and  _499
REMARK  209  A    between atoms: _498  and  _501
REMARK  210  A    between atoms: _504  and  _506
REMARK  211  A    between atoms: _506  and  _507
REMARK  212  A    between atoms: _506  and  _509
REMARK  213  A    between atoms: _509  and  _510
REMARK  214  A    between atoms: _515  and  _517
REMARK  215  A    between atoms: _517  and  _518
REMARK  216  A    between atoms: _517  and  _520
REMARK  217  A    between atoms: _520  and  _521
REMARK  218  A    between atoms: _524  and  _526
REMARK  219  A    between atoms: _526  and  _527
REMARK  220  A    between atoms: _526  and  _529
REMARK  221  A    between atoms: _529  and  _530
REMARK  222  A    between atoms: _533  and  _535
REMARK  223  A    between atoms: _535  and  _536
REMARK  224  A    between atoms: _538  and  _540
REMARK  225  A    between atoms: _540  and  _541
REMARK  226  A    between atoms: _540  and  _543
REMARK  227  A    between atoms: _543  and  _544
REMARK  228  A    between atoms: _544  and  _545
REMARK  229  A    between atoms: _545  and  _546
REMARK  230  A    between atoms: _555  and  _557
REMARK  231  A    between atoms: _557  and  _558
REMARK  232  A    between atoms: _557  and  _560
REMARK  233  A    between atoms: _560  and  _561
REMARK                            x       y       z     vdW  Elec       q    Type
REMARK                         _______ _______ _______ _____ _____    ______ ____
ROOT
ATOM      1  O   HOH     1      20.605  27.726  18.471  0.00  0.00    +0.000 OA
ENDROOT
TORSDOF 0
REMARK  Name = ../refined-set-2016/1mrw/1mrw_pocket.pdb
REMARK  233 active torsions:
REMARK  status: ('A' for Active; 'I' for Inactive)
REMARK    1  A    between atoms: _1  and  _3
REMARK    2  A    between atoms: _3  and  _4
REMARK    3  A    between atoms: _3  and  _6
REMARK    4  A    between atoms: _6  and  _7
REMARK    5  A    between atoms: _7  and  _8
REMARK    6  A    between atoms: _8  and  _9
REMARK    7  A    between atoms: _18  and  _20
REMARK    8  A    between atoms: _20  and  _21
REMARK    9  A    between atoms: _20  and  _23
REMARK   10  A    between atoms: _23  and  _24
REMARK   11  A    between atoms: _27  and  _29
REMARK   12  A    between atoms: _29  and  _30
REMARK   13  A    between atoms: _29  and  _32
REMARK   14  A    between atoms: _32  and  _33
REMARK   15  A    between atoms: _36  and  _38
REMARK   16  A    between atoms: _38  and  _39
REMARK   17  A    between atoms: _38  and  _41
REMARK   18  A    between atoms: _41  and  _42
REMARK   19  A    between atoms: _45  and  _47
REMARK   20  A    between atoms: _47  and  _48
REMARK   21  A    between atoms: _47  and  _50
REMARK   22  A    between atoms: _50  and  _51
REMARK   23  A    between atoms: _54  and  _56
REMARK   24  A    between atoms: _56  and  _57
REMARK   25  A    between atoms: _56  and  _59
REMARK   26  A    between atoms: _59  and  _60
REMARK   27  A    between atoms: _63  and  _65
REMARK   28  A    between atoms: _65  and  _66
REMARK   29  A    between atoms: _68  and  _70
REMARK   30  A    between atoms: _70  and  _71
REMARK   31  A    between atoms: _74  and  _76
REMARK   32  A    between atoms: _76  and  _77
REMARK   33  A    between atoms: _76  and  _79
REMARK   34  A    between atoms: _79  and  _80
REMARK   35  A    between atoms: _83  and  _85
REMARK   36  A    between atoms: _85  and  _86
REMARK   37  A    between atoms: _85  and  _88
REMARK   38  A    between atoms: _88  and  _89
REMARK   39  A    between atoms: _92  and  _94
REMARK   40  A    between atoms: _94  and  _95
REMARK   41  A    between atoms: _94  and  _97
REMARK   42  A    between atoms: _97  and  _98
REMARK   43  A    between atoms: _101  and  _103
REMARK   44  A    between atoms: _103  and  _104
REMARK   45  A    between atoms: _103  and  _106
REMARK   46  A    between atoms: _109  and  _111
REMARK   47  A    between atoms: _111  and  _112
REMARK   48  A    between atoms: _111  and  _114
REMARK   49  A    between atoms: _114  and  _115
REMARK   50  A    between atoms: _115  and  _116
REMARK   51  A    between atoms: _116  and  _117
REMARK   52  A    between atoms: _117  and  _118
REMARK   53  A    between atoms: _122  and  _124
REMARK   54  A    between atoms: _124  and  _125
REMARK   55  A    between atoms: _124  and  _127
REMARK   56  A    between atoms: _127  and  _128
REMARK   57  A    between atoms: _128  and  _129
REMARK   58  A    between atoms: _131  and  _133
REMARK   59  A    between atoms: _133  and  _134
REMARK   60  A    between atoms: _133  and  _136
REMARK   61  A    between atoms: _136  and  _137
REMARK   62  A    between atoms: _140  and  _142
REMARK   63  A    between atoms: _142  and  _143
REMARK   64  A    between atoms: _145  and  _147
REMARK   65  A    between atoms: _147  and  _148
REMARK   66  A    between atoms: _150  and  _152
REMARK   67  A    between atoms: _152  and  _153
REMARK   68  A    between atoms: _152  and  _155
REMARK   69  A    between atoms: _155  and  _156
REMARK   70  A    between atoms: _159  and  _161
REMARK   71  A    between atoms: _161  and  _162
REMARK   72  A    between atoms: _164  and  _166
REMARK   73  A    between atoms: _166  and  _167
REMARK   74  A    between atoms: _169  and  _171
REMARK   75  A    between atoms: _171  and  _172
REMARK   76  A    between atoms: _171  and  _174
REMARK   77  A    between atoms: _174  and  _175
REMARK   78  A    between atoms: _181  and  _183
REMARK   79  A    between atoms: _183  and  _184
REMARK   80  A    between atoms: _183  and  _186
REMARK   81  A    between atoms: _186  and  _187
REMARK   82  A    between atoms: _190  and  _192
REMARK   83  A    between atoms: _192  and  _193
REMARK   84  A    between atoms: _192  and  _195
REMARK   85  A    between atoms: _195  and  _196
REMARK   86  A    between atoms: _199  and  _201
REMARK   87  A    between atoms: _201  and  _202
REMARK   88  A    between atoms: _201  and  _204
REMARK   89  A    between atoms: _204  and  _205
REMARK   90  A    between atoms: _209  and  _210
REMARK   91  A    between atoms: _215  and  _217
REMARK   92  A    between atoms: _217  and  _218
REMARK   93  A    between atoms: _217  and  _220
REMARK   94  A    between atoms: _223  and  _225
REMARK   95  A    between atoms: _225  and  _226
REMARK   96  A    between atoms: _225  and  _228
REMARK   97  A    between atoms: _228  and  _229
REMARK   98  A    between atoms: _234  and  _236
REMARK   99  A    between atoms: _236  and  _237
REMARK  100  A    between atoms: _236  and  _239
REMARK  101  A    between atoms: _239  and  _240
REMARK  102  A    between atoms: _243  and  _245
REMARK  103  A    between atoms: _245  and  _246
REMARK  104  A    between atoms: _245  and  _248
REMARK  105  A    between atoms: _248  and  _249
REMARK  106  A    between atoms: _252  and  _254
REMARK  107  A    between atoms: _254  and  _255
REMARK  108  A    between atoms: _257  and  _259
REMARK  109  A    between atoms: _259  and  _260
REMARK  110  A    between atoms: _259  and  _262
REMARK  111  A    between atoms: _262  and  _263
REMARK  112  A    between atoms: _263  and  _264
REMARK  113  A    between atoms: _264  and  _265
REMARK  114  A    between atoms: _274  and  _276
REMARK  115  A    between atoms: _276  and  _277
REMARK  116  A    between atoms: _276  and  _279
REMARK  117  A    between atoms: _279  and  _280
REMARK  118  A    between atoms: _280  and  _281
REMARK  119  A    between atoms: _281  and  _282
REMARK  120  A    between atoms: _291  and  _293
REMARK  121  A    between atoms: _293  and  _294
REMARK  122  A    between atoms: _293  and  _296
REMARK  123  A    between atoms: _296  and  _297
REMARK  124  A    between atoms: _300  and  _302
REMARK  125  A    between atoms: _302  and  _303
REMARK  126  A    between atoms: _302  and  _305
REMARK  127  A    between atoms: _305  and  _306
REMARK  128  A    between atoms: _309  and  _311
REMARK  129  A    between atoms: _311  and  _312
REMARK  130  A    between atoms: _311  and  _314
REMARK  131  A    between atoms: _314  and  _315
REMARK  132  A    between atoms: _318  and  _320
REMARK  133  A    between atoms: _320  and  _321
REMARK  134  A    between atoms: _320  and  _323
REMARK  135  A    between atoms: _323  and  _324
REMARK  136  A    between atoms: _327  and  _329
REMARK  137  A    between atoms: _329  and  _330
REMARK  138  A    between atoms: _329  and  _332
REMARK  139  A    between atoms: _332  and  _333
REMARK  140  A    between atoms: _336  and  _338
REMARK  141  A    between atoms: _338  and  _339
REMARK  142  A    between atoms: _341  and  _343
REMARK  143  A    between atoms: _343  and  _344
REMARK  144  A    between atoms: _347  and  _349
REMARK  145  A    between atoms: _349  and  _350
REMARK  146  A    between atoms: _349  and  _352
REMARK  147  A    between atoms: _352  and  _353
REMARK  148  A    between atoms: _356  and  _358
REMARK  149  A    between atoms: _358  and  _359
REMARK  150  A    between atoms: _358  and  _361
REMARK  151  A    between atoms: _361  and  _362
REMARK  152  A    between atoms: _365  and  _367
REMARK  153  A    between atoms: _367  and  _368
REMARK  154  A    between atoms: _367  and  _370
REMARK  155  A    between atoms: _370  and  _371
REMARK  156  A    between atoms: _374  and  _376
REMARK  157  A    between atoms: _376  and  _377
REMARK  158  A    between atoms: _376  and  _379
REMARK  159  A    between atoms: _382  and  _384
REMARK  160  A    between atoms: _384  and  _385
REMARK  161  A    between atoms: _384  and  _387
REMARK  162  A    between atoms: _387  and  _388
REMARK  163  A    between atoms: _388  and  _389
REMARK  164  A    between atoms: _389  and  _390
REMARK  165  A    between atoms: _390  and  _391
REMARK  166  A    between atoms: _395  and  _397
REMARK  167  A    between atoms: _397  and  _398
REMARK  168  A    between atoms: _397  and  _400
REMARK  169  A    between atoms: _400  and  _401
REMARK  170  A    between atoms: _401  and  _402
REMARK  171  A    between atoms: _404  and  _406
REMARK  172  A    between atoms: _406  and  _407
REMARK  173  A    between atoms: _406  and  _409
REMARK  174  A    between atoms: _409  and  _410
REMARK  175  A    between atoms: _413  and  _415
REMARK  176  A    between atoms: _415  and  _416
REMARK  177  A    between atoms: _418  and  _420
REMARK  178  A    between atoms: _420  and  _421
REMARK  179  A    between atoms: _423  and  _425
REMARK  180  A    between atoms: _425  and  _426
REMARK  181  A    between atoms: _425  and  _428
REMARK  182  A    between atoms: _428  and  _429
REMARK  183  A    between atoms: _432  and  _434
REMARK  184  A    between atoms: _434  and  _435
REMARK  185  A    between atoms: _437  and  _439
REMARK  186  A    between atoms: _439  and  _440
REMARK  187  A    between atoms: _442  and  _444
REMARK  188  A    between atoms: _444  and  _445
REMARK  189  A    between atoms: _444  and  _447
REMARK  190  A    between atoms: _447  and  _448
REMARK  191  A    between atoms: _454  and  _456
REMARK  192  A    between atoms: _456  and  _457
REMARK  193  A    between atoms: _456  and  _459
REMARK  194  A    between atoms: _459  and  _460
REMARK  195  A    between atoms: _463  and  _465
REMARK  196  A    between atoms: _465  and  _466
REMARK  197  A    between atoms: _465  and  _468
REMARK  198  A    between atoms: _471  and  _473
REMARK  199  A    between atoms: _473  and  _474
REMARK  200  A    between atoms: _473  and  _476
REMARK  201  A    between atoms: _476  and  _477
REMARK  202  A    between atoms: _480  and  _482
REMARK  203  A    between atoms: _482  and  _483
REMARK  204  A    between atoms: _482  and  _485
REMARK  205  A    between atoms: _485  and  _486
REMARK  206  A    between atoms: _490  and  _491
REMARK  207  A    between atoms: _496  and  _498
REMARK  208  A    between atoms: _498  and  _499
REMARK  209  A    between atoms: _498  and  _501
REMARK  210  A    between atoms: _504  and  _506
REMARK  211  A    between atoms: _506  and  _507
REMARK  212  A    between atoms: _506  and  _509
REMARK  213  A    between atoms: _509  and  _510
REMARK  214  A    between atoms: _515  and  _517
REMARK  215  A    between atoms: _517  and  _518
REMARK  216  A    between atoms: _517  and  _520
REMARK  217  A    between atoms: _520  and  _521
REMARK  218  A    between atoms: _524  and  _526
REMARK  219  A    between atoms: _526  and  _527
REMARK  220  A    between atoms: _526  and  _529
REMARK  221  A    between atoms: _529  and  _530
REMARK  222  A    between atoms: _533  and  _535
REMARK  223  A    between atoms: _535  and  _536
REMARK  224  A    between atoms: _538  and  _540
REMARK  225  A    between atoms: _540  and  _541
REMARK  226  A    between atoms: _540  and  _543
REMARK  227  A    between atoms: _543  and  _544
REMARK  228  A    between atoms: _544  and  _545
REMARK  229  A    between atoms: _545  and  _546
REMARK  230  A    between atoms: _555  and  _557
REMARK  231  A    between atoms: _557  and  _558
REMARK  232  A    between atoms: _557  and  _560
REMARK  233  A    between atoms: _560  and  _561
REMARK                            x       y       z     vdW  Elec       q    Type
REMARK                         _______ _______ _______ _____ _____    ______ ____
ROOT
ATOM      1  O   HOH     1      18.100  20.830  16.998  0.00  0.00    +0.000 OA
ENDROOT
TORSDOF 0
REMARK  Name = ../refined-set-2016/1mrw/1mrw_pocket.pdb
REMARK  233 active torsions:
REMARK  status: ('A' for Active; 'I' for Inactive)
REMARK    1  A    between atoms: _1  and  _3
REMARK    2  A    between atoms: _3  and  _4
REMARK    3  A    between atoms: _3  and  _6
REMARK    4  A    between atoms: _6  and  _7
REMARK    5  A    between atoms: _7  and  _8
REMARK    6  A    between atoms: _8  and  _9
REMARK    7  A    between atoms: _18  and  _20
REMARK    8  A    between atoms: _20  and  _21
REMARK    9  A    between atoms: _20  and  _23
REMARK   10  A    between atoms: _23  and  _24
REMARK   11  A    between atoms: _27  and  _29
REMARK   12  A    between atoms: _29  and  _30
REMARK   13  A    between atoms: _29  and  _32
REMARK   14  A    between atoms: _32  and  _33
REMARK   15  A    between atoms: _36  and  _38
REMARK   16  A    between atoms: _38  and  _39
REMARK   17  A    between atoms: _38  and  _41
REMARK   18  A    between atoms: _41  and  _42
REMARK   19  A    between atoms: _45  and  _47
REMARK   20  A    between atoms: _47  and  _48
REMARK   21  A    between atoms: _47  and  _50
REMARK   22  A    between atoms: _50  and  _51
REMARK   23  A    between atoms: _54  and  _56
REMARK   24  A    between atoms: _56  and  _57
REMARK   25  A    between atoms: _56  and  _59
REMARK   26  A    between atoms: _59  and  _60
REMARK   27  A    between atoms: _63  and  _65
REMARK   28  A    between atoms: _65  and  _66
REMARK   29  A    between atoms: _68  and  _70
REMARK   30  A    between atoms: _70  and  _71
REMARK   31  A    between atoms: _74  and  _76
REMARK   32  A    between atoms: _76  and  _77
REMARK   33  A    between atoms: _76  and  _79
REMARK   34  A    between atoms: _79  and  _80
REMARK   35  A    between atoms: _83  and  _85
REMARK   36  A    between atoms: _85  and  _86
REMARK   37  A    between atoms: _85  and  _88
REMARK   38  A    between atoms: _88  and  _89
REMARK   39  A    between atoms: _92  and  _94
REMARK   40  A    between atoms: _94  and  _95
REMARK   41  A    between atoms: _94  and  _97
REMARK   42  A    between atoms: _97  and  _98
REMARK   43  A    between atoms: _101  and  _103
REMARK   44  A    between atoms: _103  and  _104
REMARK   45  A    between atoms: _103  and  _106
REMARK   46  A    between atoms: _109  and  _111
REMARK   47  A    between atoms: _111  and  _112
REMARK   48  A    between atoms: _111  and  _114
REMARK   49  A    between atoms: _114  and  _115
REMARK   50  A    between atoms: _115  and  _116
REMARK   51  A    between atoms: _116  and  _117
REMARK   52  A    between atoms: _117  and  _118
REMARK   53  A    between atoms: _122  and  _124
REMARK   54  A    between atoms: _124  and  _125
REMARK   55  A    between atoms: _124  and  _127
REMARK   56  A    between atoms: _127  and  _128
REMARK   57  A    between atoms: _128  and  _129
REMARK   58  A    between atoms: _131  and  _133
REMARK   59  A    between atoms: _133  and  _134
REMARK   60  A    between atoms: _133  and  _136
REMARK   61  A    between atoms: _136  and  _137
REMARK   62  A    between atoms: _140  and  _142
REMARK   63  A    between atoms: _142  and  _143
REMARK   64  A    between atoms: _145  and  _147
REMARK   65  A    between atoms: _147  and  _148
REMARK   66  A    between atoms: _150  and  _152
REMARK   67  A    between atoms: _152  and  _153
REMARK   68  A    between atoms: _152  and  _155
REMARK   69  A    between atoms: _155  and  _156
REMARK   70  A    between atoms: _159  and  _161
REMARK   71  A    between atoms: _161  and  _162
REMARK   72  A    between atoms: _164  and  _166
REMARK   73  A    between atoms: _166  and  _167
REMARK   74  A    between atoms: _169  and  _171
REMARK   75  A    between atoms: _171  and  _172
REMARK   76  A    between atoms: _171  and  _174
REMARK   77  A    between atoms: _174  and  _175
REMARK   78  A    between atoms: _181  and  _183
REMARK   79  A    between atoms: _183  and  _184
REMARK   80  A    between atoms: _183  and  _186
REMARK   81  A    between atoms: _186  and  _187
REMARK   82  A    between atoms: _190  and  _192
REMARK   83  A    between atoms: _192  and  _193
REMARK   84  A    between atoms: _192  and  _195
REMARK   85  A    between atoms: _195  and  _196
REMARK   86  A    between atoms: _199  and  _201
REMARK   87  A    between atoms: _201  and  _202
REMARK   88  A    between atoms: _201  and  _204
REMARK   89  A    between atoms: _204  and  _205
REMARK   90  A    between atoms: _209  and  _210
REMARK   91  A    between atoms: _215  and  _217
REMARK   92  A    between atoms: _217  and  _218
REMARK   93  A    between atoms: _217  and  _220
REMARK   94  A    between atoms: _223  and  _225
REMARK   95  A    between atoms: _225  and  _226
REMARK   96  A    between atoms: _225  and  _228
REMARK   97  A    between atoms: _228  and  _229
REMARK   98  A    between atoms: _234  and  _236
REMARK   99  A    between atoms: _236  and  _237
REMARK  100  A    between atoms: _236  and  _239
REMARK  101  A    between atoms: _239  and  _240
REMARK  102  A    between atoms: _243  and  _245
REMARK  103  A    between atoms: _245  and  _246
REMARK  104  A    between atoms: _245  and  _248
REMARK  105  A    between atoms: _248  and  _249
REMARK  106  A    between atoms: _252  and  _254
REMARK  107  A    between atoms: _254  and  _255
REMARK  108  A    between atoms: _257  and  _259
REMARK  109  A    between atoms: _259  and  _260
REMARK  110  A    between atoms: _259  and  _262
REMARK  111  A    between atoms: _262  and  _263
REMARK  112  A    between atoms: _263  and  _264
REMARK  113  A    between atoms: _264  and  _265
REMARK  114  A    between atoms: _274  and  _276
REMARK  115  A    between atoms: _276  and  _277
REMARK  116  A    between atoms: _276  and  _279
REMARK  117  A    between atoms: _279  and  _280
REMARK  118  A    between atoms: _280  and  _281
REMARK  119  A    between atoms: _281  and  _282
REMARK  120  A    between atoms: _291  and  _293
REMARK  121  A    between atoms: _293  and  _294
REMARK  122  A    between atoms: _293  and  _296
REMARK  123  A    between atoms: _296  and  _297
REMARK  124  A    between atoms: _300  and  _302
REMARK  125  A    between atoms: _302  and  _303
REMARK  126  A    between atoms: _302  and  _305
REMARK  127  A    between atoms: _305  and  _306
REMARK  128  A    between atoms: _309  and  _311
REMARK  129  A    between atoms: _311  and  _312
REMARK  130  A    between atoms: _311  and  _314
REMARK  131  A    between atoms: _314  and  _315
REMARK  132  A    between atoms: _318  and  _320
REMARK  133  A    between atoms: _320  and  _321
REMARK  134  A    between atoms: _320  and  _323
REMARK  135  A    between atoms: _323  and  _324
REMARK  136  A    between atoms: _327  and  _329
REMARK  137  A    between atoms: _329  and  _330
REMARK  138  A    between atoms: _329  and  _332
REMARK  139  A    between atoms: _332  and  _333
REMARK  140  A    between atoms: _336  and  _338
REMARK  141  A    between atoms: _338  and  _339
REMARK  142  A    between atoms: _341  and  _343
REMARK  143  A    between atoms: _343  and  _344
REMARK  144  A    between atoms: _347  and  _349
REMARK  145  A    between atoms: _349  and  _350
REMARK  146  A    between atoms: _349  and  _352
REMARK  147  A    between atoms: _352  and  _353
REMARK  148  A    between atoms: _356  and  _358
REMARK  149  A    between atoms: _358  and  _359
REMARK  150  A    between atoms: _358  and  _361
REMARK  151  A    between atoms: _361  and  _362
REMARK  152  A    between atoms: _365  and  _367
REMARK  153  A    between atoms: _367  and  _368
REMARK  154  A    between atoms: _367  and  _370
REMARK  155  A    between atoms: _370  and  _371
REMARK  156  A    between atoms: _374  and  _376
REMARK  157  A    between atoms: _376  and  _377
REMARK  158  A    between atoms: _376  and  _379
REMARK  159  A    between atoms: _382  and  _384
REMARK  160  A    between atoms: _384  and  _385
REMARK  161  A    between atoms: _384  and  _387
REMARK  162  A    between atoms: _387  and  _388
REMARK  163  A    between atoms: _388  and  _389
REMARK  164  A    between atoms: _389  and  _390
REMARK  165  A    between atoms: _390  and  _391
REMARK  166  A    between atoms: _395  and  _397
REMARK  167  A    between atoms: _397  and  _398
REMARK  168  A    between atoms: _397  and  _400
REMARK  169  A    between atoms: _400  and  _401
REMARK  170  A    between atoms: _401  and  _402
REMARK  171  A    between atoms: _404  and  _406
REMARK  172  A    between atoms: _406  and  _407
REMARK  173  A    between atoms: _406  and  _409
REMARK  174  A    between atoms: _409  and  _410
REMARK  175  A    between atoms: _413  and  _415
REMARK  176  A    between atoms: _415  and  _416
REMARK  177  A    between atoms: _418  and  _420
REMARK  178  A    between atoms: _420  and  _421
REMARK  179  A    between atoms: _423  and  _425
REMARK  180  A    between atoms: _425  and  _426
REMARK  181  A    between atoms: _425  and  _428
REMARK  182  A    between atoms: _428  and  _429
REMARK  183  A    between atoms: _432  and  _434
REMARK  184  A    between atoms: _434  and  _435
REMARK  185  A    between atoms: _437  and  _439
REMARK  186  A    between atoms: _439  and  _440
REMARK  187  A    between atoms: _442  and  _444
REMARK  188  A    between atoms: _444  and  _445
REMARK  189  A    between atoms: _444  and  _447
REMARK  190  A    between atoms: _447  and  _448
REMARK  191  A    between atoms: _454  and  _456
REMARK  192  A    between atoms: _456  and  _457
REMARK  193  A    between atoms: _456  and  _459
REMARK  194  A    between atoms: _459  and  _460
REMARK  195  A    between atoms: _463  and  _465
REMARK  196  A    between atoms: _465  and  _466
REMARK  197  A    between atoms: _465  and  _468
REMARK  198  A    between atoms: _471  and  _473
REMARK  199  A    between atoms: _473  and  _474
REMARK  200  A    between atoms: _473  and  _476
REMARK  201  A    between atoms: _476  and  _477
REMARK  202  A    between atoms: _480  and  _482
REMARK  203  A    between atoms: _482  and  _483
REMARK  204  A    between atoms: _482  and  _485
REMARK  205  A    between atoms: _485  and  _486
REMARK  206  A    between atoms: _490  and  _491
REMARK  207  A    between atoms: _496  and  _498
REMARK  208  A    between atoms: _498  and  _499
REMARK  209  A    between atoms: _498  and  _501
REMARK  210  A    between atoms: _504  and  _506
REMARK  211  A    between atoms: _506  and  _507
REMARK  212  A    between atoms: _506  and  _509
REMARK  213  A    between atoms: _509  and  _510
REMARK  214  A    between atoms: _515  and  _517
REMARK  215  A    between atoms: _517  and  _518
REMARK  216  A    between atoms: _517  and  _520
REMARK  217  A    between atoms: _520  and  _521
REMARK  218  A    between atoms: _524  and  _526
REMARK  219  A    between atoms: _526  and  _527
REMARK  220  A    between atoms: _526  and  _529
REMARK  221  A    between atoms: _529  and  _530
REMARK  222  A    between atoms: _533  and  _535
REMARK  223  A    between atoms: _535  and  _536
REMARK  224  A    between atoms: _538  and  _540
REMARK  225  A    between atoms: _540  and  _541
REMARK  226  A    between atoms: _540  and  _543
REMARK  227  A    between atoms: _543  and  _544
REMARK  228  A    between atoms: _544  and  _545
REMARK  229  A    between atoms: _545  and  _546
REMARK  230  A    between atoms: _555  and  _557
REMARK  231  A    between atoms: _557  and  _558
REMARK  232  A    between atoms: _557  and  _560
REMARK  233  A    between atoms: _560  and  _561
REMARK                            x       y       z     vdW  Elec       q    Type
REMARK                         _______ _______ _______ _____ _____    ______ ____
ROOT
ATOM      1  O   HOH     1      20.616  33.456  10.830  0.00  0.00    +0.000 OA
ENDROOT
TORSDOF 0
REMARK  Name = ../refined-set-2016/1mrw/1mrw_pocket.pdb
REMARK  233 active torsions:
REMARK  status: ('A' for Active; 'I' for Inactive)
REMARK    1  A    between atoms: _1  and  _3
REMARK    2  A    between atoms: _3  and  _4
REMARK    3  A    between atoms: _3  and  _6
REMARK    4  A    between atoms: _6  and  _7
REMARK    5  A    between atoms: _7  and  _8
REMARK    6  A    between atoms: _8  and  _9
REMARK    7  A    between atoms: _18  and  _20
REMARK    8  A    between atoms: _20  and  _21
REMARK    9  A    between atoms: _20  and  _23
REMARK   10  A    between atoms: _23  and  _24
REMARK   11  A    between atoms: _27  and  _29
REMARK   12  A    between atoms: _29  and  _30
REMARK   13  A    between atoms: _29  and  _32
REMARK   14  A    between atoms: _32  and  _33
REMARK   15  A    between atoms: _36  and  _38
REMARK   16  A    between atoms: _38  and  _39
REMARK   17  A    between atoms: _38  and  _41
REMARK   18  A    between atoms: _41  and  _42
REMARK   19  A    between atoms: _45  and  _47
REMARK   20  A    between atoms: _47  and  _48
REMARK   21  A    between atoms: _47  and  _50
REMARK   22  A    between atoms: _50  and  _51
REMARK   23  A    between atoms: _54  and  _56
REMARK   24  A    between atoms: _56  and  _57
REMARK   25  A    between atoms: _56  and  _59
REMARK   26  A    between atoms: _59  and  _60
REMARK   27  A    between atoms: _63  and  _65
REMARK   28  A    between atoms: _65  and  _66
REMARK   29  A    between atoms: _68  and  _70
REMARK   30  A    between atoms: _70  and  _71
REMARK   31  A    between atoms: _74  and  _76
REMARK   32  A    between atoms: _76  and  _77
REMARK   33  A    between atoms: _76  and  _79
REMARK   34  A    between atoms: _79  and  _80
REMARK   35  A    between atoms: _83  and  _85
REMARK   36  A    between atoms: _85  and  _86
REMARK   37  A    between atoms: _85  and  _88
REMARK   38  A    between atoms: _88  and  _89
REMARK   39  A    between atoms: _92  and  _94
REMARK   40  A    between atoms: _94  and  _95
REMARK   41  A    between atoms: _94  and  _97
REMARK   42  A    between atoms: _97  and  _98
REMARK   43  A    between atoms: _101  and  _103
REMARK   44  A    between atoms: _103  and  _104
REMARK   45  A    between atoms: _103  and  _106
REMARK   46  A    between atoms: _109  and  _111
REMARK   47  A    between atoms: _111  and  _112
REMARK   48  A    between atoms: _111  and  _114
REMARK   49  A    between atoms: _114  and  _115
REMARK   50  A    between atoms: _115  and  _116
REMARK   51  A    between atoms: _116  and  _117
REMARK   52  A    between atoms: _117  and  _118
REMARK   53  A    between atoms: _122  and  _124
REMARK   54  A    between atoms: _124  and  _125
REMARK   55  A    between atoms: _124  and  _127
REMARK   56  A    between atoms: _127  and  _128
REMARK   57  A    between atoms: _128  and  _129
REMARK   58  A    between atoms: _131  and  _133
REMARK   59  A    between atoms: _133  and  _134
REMARK   60  A    between atoms: _133  and  _136
REMARK   61  A    between atoms: _136  and  _137
REMARK   62  A    between atoms: _140  and  _142
REMARK   63  A    between atoms: _142  and  _143
REMARK   64  A    between atoms: _145  and  _147
REMARK   65  A    between atoms: _147  and  _148
REMARK   66  A    between atoms: _150  and  _152
REMARK   67  A    between atoms: _152  and  _153
REMARK   68  A    between atoms: _152  and  _155
REMARK   69  A    between atoms: _155  and  _156
REMARK   70  A    between atoms: _159  and  _161
REMARK   71  A    between atoms: _161  and  _162
REMARK   72  A    between atoms: _164  and  _166
REMARK   73  A    between atoms: _166  and  _167
REMARK   74  A    between atoms: _169  and  _171
REMARK   75  A    between atoms: _171  and  _172
REMARK   76  A    between atoms: _171  and  _174
REMARK   77  A    between atoms: _174  and  _175
REMARK   78  A    between atoms: _181  and  _183
REMARK   79  A    between atoms: _183  and  _184
REMARK   80  A    between atoms: _183  and  _186
REMARK   81  A    between atoms: _186  and  _187
REMARK   82  A    between atoms: _190  and  _192
REMARK   83  A    between atoms: _192  and  _193
REMARK   84  A    between atoms: _192  and  _195
REMARK   85  A    between atoms: _195  and  _196
REMARK   86  A    between atoms: _199  and  _201
REMARK   87  A    between atoms: _201  and  _202
REMARK   88  A    between atoms: _201  and  _204
REMARK   89  A    between atoms: _204  and  _205
REMARK   90  A    between atoms: _209  and  _210
REMARK   91  A    between atoms: _215  and  _217
REMARK   92  A    between atoms: _217  and  _218
REMARK   93  A    between atoms: _217  and  _220
REMARK   94  A    between atoms: _223  and  _225
REMARK   95  A    between atoms: _225  and  _226
REMARK   96  A    between atoms: _225  and  _228
REMARK   97  A    between atoms: _228  and  _229
REMARK   98  A    between atoms: _234  and  _236
REMARK   99  A    between atoms: _236  and  _237
REMARK  100  A    between atoms: _236  and  _239
REMARK  101  A    between atoms: _239  and  _240
REMARK  102  A    between atoms: _243  and  _245
REMARK  103  A    between atoms: _245  and  _246
REMARK  104  A    between atoms: _245  and  _248
REMARK  105  A    between atoms: _248  and  _249
REMARK  106  A    between atoms: _252  and  _254
REMARK  107  A    between atoms: _254  and  _255
REMARK  108  A    between atoms: _257  and  _259
REMARK  109  A    between atoms: _259  and  _260
REMARK  110  A    between atoms: _259  and  _262
REMARK  111  A    between atoms: _262  and  _263
REMARK  112  A    between atoms: _263  and  _264
REMARK  113  A    between atoms: _264  and  _265
REMARK  114  A    between atoms: _274  and  _276
REMARK  115  A    between atoms: _276  and  _277
REMARK  116  A    between atoms: _276  and  _279
REMARK  117  A    between atoms: _279  and  _280
REMARK  118  A    between atoms: _280  and  _281
REMARK  119  A    between atoms: _281  and  _282
REMARK  120  A    between atoms: _291  and  _293
REMARK  121  A    between atoms: _293  and  _294
REMARK  122  A    between atoms: _293  and  _296
REMARK  123  A    between atoms: _296  and  _297
REMARK  124  A    between atoms: _300  and  _302
REMARK  125  A    between atoms: _302  and  _303
REMARK  126  A    between atoms: _302  and  _305
REMARK  127  A    between atoms: _305  and  _306
REMARK  128  A    between atoms: _309  and  _311
REMARK  129  A    between atoms: _311  and  _312
REMARK  130  A    between atoms: _311  and  _314
REMARK  131  A    between atoms: _314  and  _315
REMARK  132  A    between atoms: _318  and  _320
REMARK  133  A    between atoms: _320  and  _321
REMARK  134  A    between atoms: _320  and  _323
REMARK  135  A    between atoms: _323  and  _324
REMARK  136  A    between atoms: _327  and  _329
REMARK  137  A    between atoms: _329  and  _330
REMARK  138  A    between atoms: _329  and  _332
REMARK  139  A    between atoms: _332  and  _333
REMARK  140  A    between atoms: _336  and  _338
REMARK  141  A    between atoms: _338  and  _339
REMARK  142  A    between atoms: _341  and  _343
REMARK  143  A    between atoms: _343  and  _344
REMARK  144  A    between atoms: _347  and  _349
REMARK  145  A    between atoms: _349  and  _350
REMARK  146  A    between atoms: _349  and  _352
REMARK  147  A    between atoms: _352  and  _353
REMARK  148  A    between atoms: _356  and  _358
REMARK  149  A    between atoms: _358  and  _359
REMARK  150  A    between atoms: _358  and  _361
REMARK  151  A    between atoms: _361  and  _362
REMARK  152  A    between atoms: _365  and  _367
REMARK  153  A    between atoms: _367  and  _368
REMARK  154  A    between atoms: _367  and  _370
REMARK  155  A    between atoms: _370  and  _371
REMARK  156  A    between atoms: _374  and  _376
REMARK  157  A    between atoms: _376  and  _377
REMARK  158  A    between atoms: _376  and  _379
REMARK  159  A    between atoms: _382  and  _384
REMARK  160  A    between atoms: _384  and  _385
REMARK  161  A    between atoms: _384  and  _387
REMARK  162  A    between atoms: _387  and  _388
REMARK  163  A    between atoms: _388  and  _389
REMARK  164  A    between atoms: _389  and  _390
REMARK  165  A    between atoms: _390  and  _391
REMARK  166  A    between atoms: _395  and  _397
REMARK  167  A    between atoms: _397  and  _398
REMARK  168  A    between atoms: _397  and  _400
REMARK  169  A    between atoms: _400  and  _401
REMARK  170  A    between atoms: _401  and  _402
REMARK  171  A    between atoms: _404  and  _406
REMARK  172  A    between atoms: _406  and  _407
REMARK  173  A    between atoms: _406  and  _409
REMARK  174  A    between atoms: _409  and  _410
REMARK  175  A    between atoms: _413  and  _415
REMARK  176  A    between atoms: _415  and  _416
REMARK  177  A    between atoms: _418  and  _420
REMARK  178  A    between atoms: _420  and  _421
REMARK  179  A    between atoms: _423  and  _425
REMARK  180  A    between atoms: _425  and  _426
REMARK  181  A    between atoms: _425  and  _428
REMARK  182  A    between atoms: _428  and  _429
REMARK  183  A    between atoms: _432  and  _434
REMARK  184  A    between atoms: _434  and  _435
REMARK  185  A    between atoms: _437  and  _439
REMARK  186  A    between atoms: _439  and  _440
REMARK  187  A    between atoms: _442  and  _444
REMARK  188  A    between atoms: _444  and  _445
REMARK  189  A    between atoms: _444  and  _447
REMARK  190  A    between atoms: _447  and  _448
REMARK  191  A    between atoms: _454  and  _456
REMARK  192  A    between atoms: _456  and  _457
REMARK  193  A    between atoms: _456  and  _459
REMARK  194  A    between atoms: _459  and  _460
REMARK  195  A    between atoms: _463  and  _465
REMARK  196  A    between atoms: _465  and  _466
REMARK  197  A    between atoms: _465  and  _468
REMARK  198  A    between atoms: _471  and  _473
REMARK  199  A    between atoms: _473  and  _474
REMARK  200  A    between atoms: _473  and  _476
REMARK  201  A    between atoms: _476  and  _477
REMARK  202  A    between atoms: _480  and  _482
REMARK  203  A    between atoms: _482  and  _483
REMARK  204  A    between atoms: _482  and  _485
REMARK  205  A    between atoms: _485  and  _486
REMARK  206  A    between atoms: _490  and  _491
REMARK  207  A    between atoms: _496  and  _498
REMARK  208  A    between atoms: _498  and  _499
REMARK  209  A    between atoms: _498  and  _501
REMARK  210  A    between atoms: _504  and  _506
REMARK  211  A    between atoms: _506  and  _507
REMARK  212  A    between atoms: _506  and  _509
REMARK  213  A    between atoms: _509  and  _510
REMARK  214  A    between atoms: _515  and  _517
REMARK  215  A    between atoms: _517  and  _518
REMARK  216  A    between atoms: _517  and  _520
REMARK  217  A    between atoms: _520  and  _521
REMARK  218  A    between atoms: _524  and  _526
REMARK  219  A    between atoms: _526  and  _527
REMARK  220  A    between atoms: _526  and  _529
REMARK  221  A    between atoms: _529  and  _530
REMARK  222  A    between atoms: _533  and  _535
REMARK  223  A    between atoms: _535  and  _536
REMARK  224  A    between atoms: _538  and  _540
REMARK  225  A    between atoms: _540  and  _541
REMARK  226  A    between atoms: _540  and  _543
REMARK  227  A    between atoms: _543  and  _544
REMARK  228  A    between atoms: _544  and  _545
REMARK  229  A    between atoms: _545  and  _546
REMARK  230  A    between atoms: _555  and  _557
REMARK  231  A    between atoms: _557  and  _558
REMARK  232  A    between atoms: _557  and  _560
REMARK  233  A    between atoms: _560  and  _561
REMARK                            x       y       z     vdW  Elec       q    Type
REMARK                         _______ _______ _______ _____ _____    ______ ____
ROOT
ATOM      1  O   HOH     1      24.722  32.708  15.664  0.00  0.00    +0.000 OA
ENDROOT
TORSDOF 0
REMARK  Name = ../refined-set-2016/1mrw/1mrw_pocket.pdb
REMARK  233 active torsions:
REMARK  status: ('A' for Active; 'I' for Inactive)
REMARK    1  A    between atoms: _1  and  _3
REMARK    2  A    between atoms: _3  and  _4
REMARK    3  A    between atoms: _3  and  _6
REMARK    4  A    between atoms: _6  and  _7
REMARK    5  A    between atoms: _7  and  _8
REMARK    6  A    between atoms: _8  and  _9
REMARK    7  A    between atoms: _18  and  _20
REMARK    8  A    between atoms: _20  and  _21
REMARK    9  A    between atoms: _20  and  _23
REMARK   10  A    between atoms: _23  and  _24
REMARK   11  A    between atoms: _27  and  _29
REMARK   12  A    between atoms: _29  and  _30
REMARK   13  A    between atoms: _29  and  _32
REMARK   14  A    between atoms: _32  and  _33
REMARK   15  A    between atoms: _36  and  _38
REMARK   16  A    between atoms: _38  and  _39
REMARK   17  A    between atoms: _38  and  _41
REMARK   18  A    between atoms: _41  and  _42
REMARK   19  A    between atoms: _45  and  _47
REMARK   20  A    between atoms: _47  and  _48
REMARK   21  A    between atoms: _47  and  _50
REMARK   22  A    between atoms: _50  and  _51
REMARK   23  A    between atoms: _54  and  _56
REMARK   24  A    between atoms: _56  and  _57
REMARK   25  A    between atoms: _56  and  _59
REMARK   26  A    between atoms: _59  and  _60
REMARK   27  A    between atoms: _63  and  _65
REMARK   28  A    between atoms: _65  and  _66
REMARK   29  A    between atoms: _68  and  _70
REMARK   30  A    between atoms: _70  and  _71
REMARK   31  A    between atoms: _74  and  _76
REMARK   32  A    between atoms: _76  and  _77
REMARK   33  A    between atoms: _76  and  _79
REMARK   34  A    between atoms: _79  and  _80
REMARK   35  A    between atoms: _83  and  _85
REMARK   36  A    between atoms: _85  and  _86
REMARK   37  A    between atoms: _85  and  _88
REMARK   38  A    between atoms: _88  and  _89
REMARK   39  A    between atoms: _92  and  _94
REMARK   40  A    between atoms: _94  and  _95
REMARK   41  A    between atoms: _94  and  _97
REMARK   42  A    between atoms: _97  and  _98
REMARK   43  A    between atoms: _101  and  _103
REMARK   44  A    between atoms: _103  and  _104
REMARK   45  A    between atoms: _103  and  _106
REMARK   46  A    between atoms: _109  and  _111
REMARK   47  A    between atoms: _111  and  _112
REMARK   48  A    between atoms: _111  and  _114
REMARK   49  A    between atoms: _114  and  _115
REMARK   50  A    between atoms: _115  and  _116
REMARK   51  A    between atoms: _116  and  _117
REMARK   52  A    between atoms: _117  and  _118
REMARK   53  A    between atoms: _122  and  _124
REMARK   54  A    between atoms: _124  and  _125
REMARK   55  A    between atoms: _124  and  _127
REMARK   56  A    between atoms: _127  and  _128
REMARK   57  A    between atoms: _128  and  _129
REMARK   58  A    between atoms: _131  and  _133
REMARK   59  A    between atoms: _133  and  _134
REMARK   60  A    between atoms: _133  and  _136
REMARK   61  A    between atoms: _136  and  _137
REMARK   62  A    between atoms: _140  and  _142
REMARK   63  A    between atoms: _142  and  _143
REMARK   64  A    between atoms: _145  and  _147
REMARK   65  A    between atoms: _147  and  _148
REMARK   66  A    between atoms: _150  and  _152
REMARK   67  A    between atoms: _152  and  _153
REMARK   68  A    between atoms: _152  and  _155
REMARK   69  A    between atoms: _155  and  _156
REMARK   70  A    between atoms: _159  and  _161
REMARK   71  A    between atoms: _161  and  _162
REMARK   72  A    between atoms: _164  and  _166
REMARK   73  A    between atoms: _166  and  _167
REMARK   74  A    between atoms: _169  and  _171
REMARK   75  A    between atoms: _171  and  _172
REMARK   76  A    between atoms: _171  and  _174
REMARK   77  A    between atoms: _174  and  _175
REMARK   78  A    between atoms: _181  and  _183
REMARK   79  A    between atoms: _183  and  _184
REMARK   80  A    between atoms: _183  and  _186
REMARK   81  A    between atoms: _186  and  _187
REMARK   82  A    between atoms: _190  and  _192
REMARK   83  A    between atoms: _192  and  _193
REMARK   84  A    between atoms: _192  and  _195
REMARK   85  A    between atoms: _195  and  _196
REMARK   86  A    between atoms: _199  and  _201
REMARK   87  A    between atoms: _201  and  _202
REMARK   88  A    between atoms: _201  and  _204
REMARK   89  A    between atoms: _204  and  _205
REMARK   90  A    between atoms: _209  and  _210
REMARK   91  A    between atoms: _215  and  _217
REMARK   92  A    between atoms: _217  and  _218
REMARK   93  A    between atoms: _217  and  _220
REMARK   94  A    between atoms: _223  and  _225
REMARK   95  A    between atoms: _225  and  _226
REMARK   96  A    between atoms: _225  and  _228
REMARK   97  A    between atoms: _228  and  _229
REMARK   98  A    between atoms: _234  and  _236
REMARK   99  A    between atoms: _236  and  _237
REMARK  100  A    between atoms: _236  and  _239
REMARK  101  A    between atoms: _239  and  _240
REMARK  102  A    between atoms: _243  and  _245
REMARK  103  A    between atoms: _245  and  _246
REMARK  104  A    between atoms: _245  and  _248
REMARK  105  A    between atoms: _248  and  _249
REMARK  106  A    between atoms: _252  and  _254
REMARK  107  A    between atoms: _254  and  _255
REMARK  108  A    between atoms: _257  and  _259
REMARK  109  A    between atoms: _259  and  _260
REMARK  110  A    between atoms: _259  and  _262
REMARK  111  A    between atoms: _262  and  _263
REMARK  112  A    between atoms: _263  and  _264
REMARK  113  A    between atoms: _264  and  _265
REMARK  114  A    between atoms: _274  and  _276
REMARK  115  A    between atoms: _276  and  _277
REMARK  116  A    between atoms: _276  and  _279
REMARK  117  A    between atoms: _279  and  _280
REMARK  118  A    between atoms: _280  and  _281
REMARK  119  A    between atoms: _281  and  _282
REMARK  120  A    between atoms: _291  and  _293
REMARK  121  A    between atoms: _293  and  _294
REMARK  122  A    between atoms: _293  and  _296
REMARK  123  A    between atoms: _296  and  _297
REMARK  124  A    between atoms: _300  and  _302
REMARK  125  A    between atoms: _302  and  _303
REMARK  126  A    between atoms: _302  and  _305
REMARK  127  A    between atoms: _305  and  _306
REMARK  128  A    between atoms: _309  and  _311
REMARK  129  A    between atoms: _311  and  _312
REMARK  130  A    between atoms: _311  and  _314
REMARK  131  A    between atoms: _314  and  _315
REMARK  132  A    between atoms: _318  and  _320
REMARK  133  A    between atoms: _320  and  _321
REMARK  134  A    between atoms: _320  and  _323
REMARK  135  A    between atoms: _323  and  _324
REMARK  136  A    between atoms: _327  and  _329
REMARK  137  A    between atoms: _329  and  _330
REMARK  138  A    between atoms: _329  and  _332
REMARK  139  A    between atoms: _332  and  _333
REMARK  140  A    between atoms: _336  and  _338
REMARK  141  A    between atoms: _338  and  _339
REMARK  142  A    between atoms: _341  and  _343
REMARK  143  A    between atoms: _343  and  _344
REMARK  144  A    between atoms: _347  and  _349
REMARK  145  A    between atoms: _349  and  _350
REMARK  146  A    between atoms: _349  and  _352
REMARK  147  A    between atoms: _352  and  _353
REMARK  148  A    between atoms: _356  and  _358
REMARK  149  A    between atoms: _358  and  _359
REMARK  150  A    between atoms: _358  and  _361
REMARK  151  A    between atoms: _361  and  _362
REMARK  152  A    between atoms: _365  and  _367
REMARK  153  A    between atoms: _367  and  _368
REMARK  154  A    between atoms: _367  and  _370
REMARK  155  A    between atoms: _370  and  _371
REMARK  156  A    between atoms: _374  and  _376
REMARK  157  A    between atoms: _376  and  _377
REMARK  158  A    between atoms: _376  and  _379
REMARK  159  A    between atoms: _382  and  _384
REMARK  160  A    between atoms: _384  and  _385
REMARK  161  A    between atoms: _384  and  _387
REMARK  162  A    between atoms: _387  and  _388
REMARK  163  A    between atoms: _388  and  _389
REMARK  164  A    between atoms: _389  and  _390
REMARK  165  A    between atoms: _390  and  _391
REMARK  166  A    between atoms: _395  and  _397
REMARK  167  A    between atoms: _397  and  _398
REMARK  168  A    between atoms: _397  and  _400
REMARK  169  A    between atoms: _400  and  _401
REMARK  170  A    between atoms: _401  and  _402
REMARK  171  A    between atoms: _404  and  _406
REMARK  172  A    between atoms: _406  and  _407
REMARK  173  A    between atoms: _406  and  _409
REMARK  174  A    between atoms: _409  and  _410
REMARK  175  A    between atoms: _413  and  _415
REMARK  176  A    between atoms: _415  and  _416
REMARK  177  A    between atoms: _418  and  _420
REMARK  178  A    between atoms: _420  and  _421
REMARK  179  A    between atoms: _423  and  _425
REMARK  180  A    between atoms: _425  and  _426
REMARK  181  A    between atoms: _425  and  _428
REMARK  182  A    between atoms: _428  and  _429
REMARK  183  A    between atoms: _432  and  _434
REMARK  184  A    between atoms: _434  and  _435
REMARK  185  A    between atoms: _437  and  _439
REMARK  186  A    between atoms: _439  and  _440
REMARK  187  A    between atoms: _442  and  _444
REMARK  188  A    between atoms: _444  and  _445
REMARK  189  A    between atoms: _444  and  _447
REMARK  190  A    between atoms: _447  and  _448
REMARK  191  A    between atoms: _454  and  _456
REMARK  192  A    between atoms: _456  and  _457
REMARK  193  A    between atoms: _456  and  _459
REMARK  194  A    between atoms: _459  and  _460
REMARK  195  A    between atoms: _463  and  _465
REMARK  196  A    between atoms: _465  and  _466
REMARK  197  A    between atoms: _465  and  _468
REMARK  198  A    between atoms: _471  and  _473
REMARK  199  A    between atoms: _473  and  _474
REMARK  200  A    between atoms: _473  and  _476
REMARK  201  A    between atoms: _476  and  _477
REMARK  202  A    between atoms: _480  and  _482
REMARK  203  A    between atoms: _482  and  _483
REMARK  204  A    between atoms: _482  and  _485
REMARK  205  A    between atoms: _485  and  _486
REMARK  206  A    between atoms: _490  and  _491
REMARK  207  A    between atoms: _496  and  _498
REMARK  208  A    between atoms: _498  and  _499
REMARK  209  A    between atoms: _498  and  _501
REMARK  210  A    between atoms: _504  and  _506
REMARK  211  A    between atoms: _506  and  _507
REMARK  212  A    between atoms: _506  and  _509
REMARK  213  A    between atoms: _509  and  _510
REMARK  214  A    between atoms: _515  and  _517
REMARK  215  A    between atoms: _517  and  _518
REMARK  216  A    between atoms: _517  and  _520
REMARK  217  A    between atoms: _520  and  _521
REMARK  218  A    between atoms: _524  and  _526
REMARK  219  A    between atoms: _526  and  _527
REMARK  220  A    between atoms: _526  and  _529
REMARK  221  A    between atoms: _529  and  _530
REMARK  222  A    between atoms: _533  and  _535
REMARK  223  A    between atoms: _535  and  _536
REMARK  224  A    between atoms: _538  and  _540
REMARK  225  A    between atoms: _540  and  _541
REMARK  226  A    between atoms: _540  and  _543
REMARK  227  A    between atoms: _543  and  _544
REMARK  228  A    between atoms: _544  and  _545
REMARK  229  A    between atoms: _545  and  _546
REMARK  230  A    between atoms: _555  and  _557
REMARK  231  A    between atoms: _557  and  _558
REMARK  232  A    between atoms: _557  and  _560
REMARK  233  A    between atoms: _560  and  _561
REMARK                            x       y       z     vdW  Elec       q    Type
REMARK                         _______ _______ _______ _____ _____    ______ ____
ROOT
ATOM      1  O   HOH     1      24.324  28.461  15.827  0.00  0.00    +0.000 OA
ENDROOT
TORSDOF 0
REMARK  Name = ../refined-set-2016/1mrw/1mrw_pocket.pdb
REMARK  233 active torsions:
REMARK  status: ('A' for Active; 'I' for Inactive)
REMARK    1  A    between atoms: _1  and  _3
REMARK    2  A    between atoms: _3  and  _4
REMARK    3  A    between atoms: _3  and  _6
REMARK    4  A    between atoms: _6  and  _7
REMARK    5  A    between atoms: _7  and  _8
REMARK    6  A    between atoms: _8  and  _9
REMARK    7  A    between atoms: _18  and  _20
REMARK    8  A    between atoms: _20  and  _21
REMARK    9  A    between atoms: _20  and  _23
REMARK   10  A    between atoms: _23  and  _24
REMARK   11  A    between atoms: _27  and  _29
REMARK   12  A    between atoms: _29  and  _30
REMARK   13  A    between atoms: _29  and  _32
REMARK   14  A    between atoms: _32  and  _33
REMARK   15  A    between atoms: _36  and  _38
REMARK   16  A    between atoms: _38  and  _39
REMARK   17  A    between atoms: _38  and  _41
REMARK   18  A    between atoms: _41  and  _42
REMARK   19  A    between atoms: _45  and  _47
REMARK   20  A    between atoms: _47  and  _48
REMARK   21  A    between atoms: _47  and  _50
REMARK   22  A    between atoms: _50  and  _51
REMARK   23  A    between atoms: _54  and  _56
REMARK   24  A    between atoms: _56  and  _57
REMARK   25  A    between atoms: _56  and  _59
REMARK   26  A    between atoms: _59  and  _60
REMARK   27  A    between atoms: _63  and  _65
REMARK   28  A    between atoms: _65  and  _66
REMARK   29  A    between atoms: _68  and  _70
REMARK   30  A    between atoms: _70  and  _71
REMARK   31  A    between atoms: _74  and  _76
REMARK   32  A    between atoms: _76  and  _77
REMARK   33  A    between atoms: _76  and  _79
REMARK   34  A    between atoms: _79  and  _80
REMARK   35  A    between atoms: _83  and  _85
REMARK   36  A    between atoms: _85  and  _86
REMARK   37  A    between atoms: _85  and  _88
REMARK   38  A    between atoms: _88  and  _89
REMARK   39  A    between atoms: _92  and  _94
REMARK   40  A    between atoms: _94  and  _95
REMARK   41  A    between atoms: _94  and  _97
REMARK   42  A    between atoms: _97  and  _98
REMARK   43  A    between atoms: _101  and  _103
REMARK   44  A    between atoms: _103  and  _104
REMARK   45  A    between atoms: _103  and  _106
REMARK   46  A    between atoms: _109  and  _111
REMARK   47  A    between atoms: _111  and  _112
REMARK   48  A    between atoms: _111  and  _114
REMARK   49  A    between atoms: _114  and  _115
REMARK   50  A    between atoms: _115  and  _116
REMARK   51  A    between atoms: _116  and  _117
REMARK   52  A    between atoms: _117  and  _118
REMARK   53  A    between atoms: _122  and  _124
REMARK   54  A    between atoms: _124  and  _125
REMARK   55  A    between atoms: _124  and  _127
REMARK   56  A    between atoms: _127  and  _128
REMARK   57  A    between atoms: _128  and  _129
REMARK   58  A    between atoms: _131  and  _133
REMARK   59  A    between atoms: _133  and  _134
REMARK   60  A    between atoms: _133  and  _136
REMARK   61  A    between atoms: _136  and  _137
REMARK   62  A    between atoms: _140  and  _142
REMARK   63  A    between atoms: _142  and  _143
REMARK   64  A    between atoms: _145  and  _147
REMARK   65  A    between atoms: _147  and  _148
REMARK   66  A    between atoms: _150  and  _152
REMARK   67  A    between atoms: _152  and  _153
REMARK   68  A    between atoms: _152  and  _155
REMARK   69  A    between atoms: _155  and  _156
REMARK   70  A    between atoms: _159  and  _161
REMARK   71  A    between atoms: _161  and  _162
REMARK   72  A    between atoms: _164  and  _166
REMARK   73  A    between atoms: _166  and  _167
REMARK   74  A    between atoms: _169  and  _171
REMARK   75  A    between atoms: _171  and  _172
REMARK   76  A    between atoms: _171  and  _174
REMARK   77  A    between atoms: _174  and  _175
REMARK   78  A    between atoms: _181  and  _183
REMARK   79  A    between atoms: _183  and  _184
REMARK   80  A    between atoms: _183  and  _186
REMARK   81  A    between atoms: _186  and  _187
REMARK   82  A    between atoms: _190  and  _192
REMARK   83  A    between atoms: _192  and  _193
REMARK   84  A    between atoms: _192  and  _195
REMARK   85  A    between atoms: _195  and  _196
REMARK   86  A    between atoms: _199  and  _201
REMARK   87  A    between atoms: _201  and  _202
REMARK   88  A    between atoms: _201  and  _204
REMARK   89  A    between atoms: _204  and  _205
REMARK   90  A    between atoms: _209  and  _210
REMARK   91  A    between atoms: _215  and  _217
REMARK   92  A    between atoms: _217  and  _218
REMARK   93  A    between atoms: _217  and  _220
REMARK   94  A    between atoms: _223  and  _225
REMARK   95  A    between atoms: _225  and  _226
REMARK   96  A    between atoms: _225  and  _228
REMARK   97  A    between atoms: _228  and  _229
REMARK   98  A    between atoms: _234  and  _236
REMARK   99  A    between atoms: _236  and  _237
REMARK  100  A    between atoms: _236  and  _239
REMARK  101  A    between atoms: _239  and  _240
REMARK  102  A    between atoms: _243  and  _245
REMARK  103  A    between atoms: _245  and  _246
REMARK  104  A    between atoms: _245  and  _248
REMARK  105  A    between atoms: _248  and  _249
REMARK  106  A    between atoms: _252  and  _254
REMARK  107  A    between atoms: _254  and  _255
REMARK  108  A    between atoms: _257  and  _259
REMARK  109  A    between atoms: _259  and  _260
REMARK  110  A    between atoms: _259  and  _262
REMARK  111  A    between atoms: _262  and  _263
REMARK  112  A    between atoms: _263  and  _264
REMARK  113  A    between atoms: _264  and  _265
REMARK  114  A    between atoms: _274  and  _276
REMARK  115  A    between atoms: _276  and  _277
REMARK  116  A    between atoms: _276  and  _279
REMARK  117  A    between atoms: _279  and  _280
REMARK  118  A    between atoms: _280  and  _281
REMARK  119  A    between atoms: _281  and  _282
REMARK  120  A    between atoms: _291  and  _293
REMARK  121  A    between atoms: _293  and  _294
REMARK  122  A    between atoms: _293  and  _296
REMARK  123  A    between atoms: _296  and  _297
REMARK  124  A    between atoms: _300  and  _302
REMARK  125  A    between atoms: _302  and  _303
REMARK  126  A    between atoms: _302  and  _305
REMARK  127  A    between atoms: _305  and  _306
REMARK  128  A    between atoms: _309  and  _311
REMARK  129  A    between atoms: _311  and  _312
REMARK  130  A    between atoms: _311  and  _314
REMARK  131  A    between atoms: _314  and  _315
REMARK  132  A    between atoms: _318  and  _320
REMARK  133  A    between atoms: _320  and  _321
REMARK  134  A    between atoms: _320  and  _323
REMARK  135  A    between atoms: _323  and  _324
REMARK  136  A    between atoms: _327  and  _329
REMARK  137  A    between atoms: _329  and  _330
REMARK  138  A    between atoms: _329  and  _332
REMARK  139  A    between atoms: _332  and  _333
REMARK  140  A    between atoms: _336  and  _338
REMARK  141  A    between atoms: _338  and  _339
REMARK  142  A    between atoms: _341  and  _343
REMARK  143  A    between atoms: _343  and  _344
REMARK  144  A    between atoms: _347  and  _349
REMARK  145  A    between atoms: _349  and  _350
REMARK  146  A    between atoms: _349  and  _352
REMARK  147  A    between atoms: _352  and  _353
REMARK  148  A    between atoms: _356  and  _358
REMARK  149  A    between atoms: _358  and  _359
REMARK  150  A    between atoms: _358  and  _361
REMARK  151  A    between atoms: _361  and  _362
REMARK  152  A    between atoms: _365  and  _367
REMARK  153  A    between atoms: _367  and  _368
REMARK  154  A    between atoms: _367  and  _370
REMARK  155  A    between atoms: _370  and  _371
REMARK  156  A    between atoms: _374  and  _376
REMARK  157  A    between atoms: _376  and  _377
REMARK  158  A    between atoms: _376  and  _379
REMARK  159  A    between atoms: _382  and  _384
REMARK  160  A    between atoms: _384  and  _385
REMARK  161  A    between atoms: _384  and  _387
REMARK  162  A    between atoms: _387  and  _388
REMARK  163  A    between atoms: _388  and  _389
REMARK  164  A    between atoms: _389  and  _390
REMARK  165  A    between atoms: _390  and  _391
REMARK  166  A    between atoms: _395  and  _397
REMARK  167  A    between atoms: _397  and  _398
REMARK  168  A    between atoms: _397  and  _400
REMARK  169  A    between atoms: _400  and  _401
REMARK  170  A    between atoms: _401  and  _402
REMARK  171  A    between atoms: _404  and  _406
REMARK  172  A    between atoms: _406  and  _407
REMARK  173  A    between atoms: _406  and  _409
REMARK  174  A    between atoms: _409  and  _410
REMARK  175  A    between atoms: _413  and  _415
REMARK  176  A    between atoms: _415  and  _416
REMARK  177  A    between atoms: _418  and  _420
REMARK  178  A    between atoms: _420  and  _421
REMARK  179  A    between atoms: _423  and  _425
REMARK  180  A    between atoms: _425  and  _426
REMARK  181  A    between atoms: _425  and  _428
REMARK  182  A    between atoms: _428  and  _429
REMARK  183  A    between atoms: _432  and  _434
REMARK  184  A    between atoms: _434  and  _435
REMARK  185  A    between atoms: _437  and  _439
REMARK  186  A    between atoms: _439  and  _440
REMARK  187  A    between atoms: _442  and  _444
REMARK  188  A    between atoms: _444  and  _445
REMARK  189  A    between atoms: _444  and  _447
REMARK  190  A    between atoms: _447  and  _448
REMARK  191  A    between atoms: _454  and  _456
REMARK  192  A    between atoms: _456  and  _457
REMARK  193  A    between atoms: _456  and  _459
REMARK  194  A    between atoms: _459  and  _460
REMARK  195  A    between atoms: _463  and  _465
REMARK  196  A    between atoms: _465  and  _466
REMARK  197  A    between atoms: _465  and  _468
REMARK  198  A    between atoms: _471  and  _473
REMARK  199  A    between atoms: _473  and  _474
REMARK  200  A    between atoms: _473  and  _476
REMARK  201  A    between atoms: _476  and  _477
REMARK  202  A    between atoms: _480  and  _482
REMARK  203  A    between atoms: _482  and  _483
REMARK  204  A    between atoms: _482  and  _485
REMARK  205  A    between atoms: _485  and  _486
REMARK  206  A    between atoms: _490  and  _491
REMARK  207  A    between atoms: _496  and  _498
REMARK  208  A    between atoms: _498  and  _499
REMARK  209  A    between atoms: _498  and  _501
REMARK  210  A    between atoms: _504  and  _506
REMARK  211  A    between atoms: _506  and  _507
REMARK  212  A    between atoms: _506  and  _509
REMARK  213  A    between atoms: _509  and  _510
REMARK  214  A    between atoms: _515  and  _517
REMARK  215  A    between atoms: _517  and  _518
REMARK  216  A    between atoms: _517  and  _520
REMARK  217  A    between atoms: _520  and  _521
REMARK  218  A    between atoms: _524  and  _526
REMARK  219  A    between atoms: _526  and  _527
REMARK  220  A    between atoms: _526  and  _529
REMARK  221  A    between atoms: _529  and  _530
REMARK  222  A    between atoms: _533  and  _535
REMARK  223  A    between atoms: _535  and  _536
REMARK  224  A    between atoms: _538  and  _540
REMARK  225  A    between atoms: _540  and  _541
REMARK  226  A    between atoms: _540  and  _543
REMARK  227  A    between atoms: _543  and  _544
REMARK  228  A    between atoms: _544  and  _545
REMARK  229  A    between atoms: _545  and  _546
REMARK  230  A    between atoms: _555  and  _557
REMARK  231  A    between atoms: _557  and  _558
REMARK  232  A    between atoms: _557  and  _560
REMARK  233  A    between atoms: _560  and  _561
REMARK                            x       y       z     vdW  Elec       q    Type
REMARK                         _______ _______ _______ _____ _____    ______ ____
ROOT
ATOM      1  O   HOH     1      22.634  34.350  12.583  0.00  0.00    +0.000 OA
ENDROOT
TORSDOF 0
REMARK  Name = ../refined-set-2016/1mrw/1mrw_pocket.pdb
REMARK  233 active torsions:
REMARK  status: ('A' for Active; 'I' for Inactive)
REMARK    1  A    between atoms: _1  and  _3
REMARK    2  A    between atoms: _3  and  _4
REMARK    3  A    between atoms: _3  and  _6
REMARK    4  A    between atoms: _6  and  _7
REMARK    5  A    between atoms: _7  and  _8
REMARK    6  A    between atoms: _8  and  _9
REMARK    7  A    between atoms: _18  and  _20
REMARK    8  A    between atoms: _20  and  _21
REMARK    9  A    between atoms: _20  and  _23
REMARK   10  A    between atoms: _23  and  _24
REMARK   11  A    between atoms: _27  and  _29
REMARK   12  A    between atoms: _29  and  _30
REMARK   13  A    between atoms: _29  and  _32
REMARK   14  A    between atoms: _32  and  _33
REMARK   15  A    between atoms: _36  and  _38
REMARK   16  A    between atoms: _38  and  _39
REMARK   17  A    between atoms: _38  and  _41
REMARK   18  A    between atoms: _41  and  _42
REMARK   19  A    between atoms: _45  and  _47
REMARK   20  A    between atoms: _47  and  _48
REMARK   21  A    between atoms: _47  and  _50
REMARK   22  A    between atoms: _50  and  _51
REMARK   23  A    between atoms: _54  and  _56
REMARK   24  A    between atoms: _56  and  _57
REMARK   25  A    between atoms: _56  and  _59
REMARK   26  A    between atoms: _59  and  _60
REMARK   27  A    between atoms: _63  and  _65
REMARK   28  A    between atoms: _65  and  _66
REMARK   29  A    between atoms: _68  and  _70
REMARK   30  A    between atoms: _70  and  _71
REMARK   31  A    between atoms: _74  and  _76
REMARK   32  A    between atoms: _76  and  _77
REMARK   33  A    between atoms: _76  and  _79
REMARK   34  A    between atoms: _79  and  _80
REMARK   35  A    between atoms: _83  and  _85
REMARK   36  A    between atoms: _85  and  _86
REMARK   37  A    between atoms: _85  and  _88
REMARK   38  A    between atoms: _88  and  _89
REMARK   39  A    between atoms: _92  and  _94
REMARK   40  A    between atoms: _94  and  _95
REMARK   41  A    between atoms: _94  and  _97
REMARK   42  A    between atoms: _97  and  _98
REMARK   43  A    between atoms: _101  and  _103
REMARK   44  A    between atoms: _103  and  _104
REMARK   45  A    between atoms: _103  and  _106
REMARK   46  A    between atoms: _109  and  _111
REMARK   47  A    between atoms: _111  and  _112
REMARK   48  A    between atoms: _111  and  _114
REMARK   49  A    between atoms: _114  and  _115
REMARK   50  A    between atoms: _115  and  _116
REMARK   51  A    between atoms: _116  and  _117
REMARK   52  A    between atoms: _117  and  _118
REMARK   53  A    between atoms: _122  and  _124
REMARK   54  A    between atoms: _124  and  _125
REMARK   55  A    between atoms: _124  and  _127
REMARK   56  A    between atoms: _127  and  _128
REMARK   57  A    between atoms: _128  and  _129
REMARK   58  A    between atoms: _131  and  _133
REMARK   59  A    between atoms: _133  and  _134
REMARK   60  A    between atoms: _133  and  _136
REMARK   61  A    between atoms: _136  and  _137
REMARK   62  A    between atoms: _140  and  _142
REMARK   63  A    between atoms: _142  and  _143
REMARK   64  A    between atoms: _145  and  _147
REMARK   65  A    between atoms: _147  and  _148
REMARK   66  A    between atoms: _150  and  _152
REMARK   67  A    between atoms: _152  and  _153
REMARK   68  A    between atoms: _152  and  _155
REMARK   69  A    between atoms: _155  and  _156
REMARK   70  A    between atoms: _159  and  _161
REMARK   71  A    between atoms: _161  and  _162
REMARK   72  A    between atoms: _164  and  _166
REMARK   73  A    between atoms: _166  and  _167
REMARK   74  A    between atoms: _169  and  _171
REMARK   75  A    between atoms: _171  and  _172
REMARK   76  A    between atoms: _171  and  _174
REMARK   77  A    between atoms: _174  and  _175
REMARK   78  A    between atoms: _181  and  _183
REMARK   79  A    between atoms: _183  and  _184
REMARK   80  A    between atoms: _183  and  _186
REMARK   81  A    between atoms: _186  and  _187
REMARK   82  A    between atoms: _190  and  _192
REMARK   83  A    between atoms: _192  and  _193
REMARK   84  A    between atoms: _192  and  _195
REMARK   85  A    between atoms: _195  and  _196
REMARK   86  A    between atoms: _199  and  _201
REMARK   87  A    between atoms: _201  and  _202
REMARK   88  A    between atoms: _201  and  _204
REMARK   89  A    between atoms: _204  and  _205
REMARK   90  A    between atoms: _209  and  _210
REMARK   91  A    between atoms: _215  and  _217
REMARK   92  A    between atoms: _217  and  _218
REMARK   93  A    between atoms: _217  and  _220
REMARK   94  A    between atoms: _223  and  _225
REMARK   95  A    between atoms: _225  and  _226
REMARK   96  A    between atoms: _225  and  _228
REMARK   97  A    between atoms: _228  and  _229
REMARK   98  A    between atoms: _234  and  _236
REMARK   99  A    between atoms: _236  and  _237
REMARK  100  A    between atoms: _236  and  _239
REMARK  101  A    between atoms: _239  and  _240
REMARK  102  A    between atoms: _243  and  _245
REMARK  103  A    between atoms: _245  and  _246
REMARK  104  A    between atoms: _245  and  _248
REMARK  105  A    between atoms: _248  and  _249
REMARK  106  A    between atoms: _252  and  _254
REMARK  107  A    between atoms: _254  and  _255
REMARK  108  A    between atoms: _257  and  _259
REMARK  109  A    between atoms: _259  and  _260
REMARK  110  A    between atoms: _259  and  _262
REMARK  111  A    between atoms: _262  and  _263
REMARK  112  A    between atoms: _263  and  _264
REMARK  113  A    between atoms: _264  and  _265
REMARK  114  A    between atoms: _274  and  _276
REMARK  115  A    between atoms: _276  and  _277
REMARK  116  A    between atoms: _276  and  _279
REMARK  117  A    between atoms: _279  and  _280
REMARK  118  A    between atoms: _280  and  _281
REMARK  119  A    between atoms: _281  and  _282
REMARK  120  A    between atoms: _291  and  _293
REMARK  121  A    between atoms: _293  and  _294
REMARK  122  A    between atoms: _293  and  _296
REMARK  123  A    between atoms: _296  and  _297
REMARK  124  A    between atoms: _300  and  _302
REMARK  125  A    between atoms: _302  and  _303
REMARK  126  A    between atoms: _302  and  _305
REMARK  127  A    between atoms: _305  and  _306
REMARK  128  A    between atoms: _309  and  _311
REMARK  129  A    between atoms: _311  and  _312
REMARK  130  A    between atoms: _311  and  _314
REMARK  131  A    between atoms: _314  and  _315
REMARK  132  A    between atoms: _318  and  _320
REMARK  133  A    between atoms: _320  and  _321
REMARK  134  A    between atoms: _320  and  _323
REMARK  135  A    between atoms: _323  and  _324
REMARK  136  A    between atoms: _327  and  _329
REMARK  137  A    between atoms: _329  and  _330
REMARK  138  A    between atoms: _329  and  _332
REMARK  139  A    between atoms: _332  and  _333
REMARK  140  A    between atoms: _336  and  _338
REMARK  141  A    between atoms: _338  and  _339
REMARK  142  A    between atoms: _341  and  _343
REMARK  143  A    between atoms: _343  and  _344
REMARK  144  A    between atoms: _347  and  _349
REMARK  145  A    between atoms: _349  and  _350
REMARK  146  A    between atoms: _349  and  _352
REMARK  147  A    between atoms: _352  and  _353
REMARK  148  A    between atoms: _356  and  _358
REMARK  149  A    between atoms: _358  and  _359
REMARK  150  A    between atoms: _358  and  _361
REMARK  151  A    between atoms: _361  and  _362
REMARK  152  A    between atoms: _365  and  _367
REMARK  153  A    between atoms: _367  and  _368
REMARK  154  A    between atoms: _367  and  _370
REMARK  155  A    between atoms: _370  and  _371
REMARK  156  A    between atoms: _374  and  _376
REMARK  157  A    between atoms: _376  and  _377
REMARK  158  A    between atoms: _376  and  _379
REMARK  159  A    between atoms: _382  and  _384
REMARK  160  A    between atoms: _384  and  _385
REMARK  161  A    between atoms: _384  and  _387
REMARK  162  A    between atoms: _387  and  _388
REMARK  163  A    between atoms: _388  and  _389
REMARK  164  A    between atoms: _389  and  _390
REMARK  165  A    between atoms: _390  and  _391
REMARK  166  A    between atoms: _395  and  _397
REMARK  167  A    between atoms: _397  and  _398
REMARK  168  A    between atoms: _397  and  _400
REMARK  169  A    between atoms: _400  and  _401
REMARK  170  A    between atoms: _401  and  _402
REMARK  171  A    between atoms: _404  and  _406
REMARK  172  A    between atoms: _406  and  _407
REMARK  173  A    between atoms: _406  and  _409
REMARK  174  A    between atoms: _409  and  _410
REMARK  175  A    between atoms: _413  and  _415
REMARK  176  A    between atoms: _415  and  _416
REMARK  177  A    between atoms: _418  and  _420
REMARK  178  A    between atoms: _420  and  _421
REMARK  179  A    between atoms: _423  and  _425
REMARK  180  A    between atoms: _425  and  _426
REMARK  181  A    between atoms: _425  and  _428
REMARK  182  A    between atoms: _428  and  _429
REMARK  183  A    between atoms: _432  and  _434
REMARK  184  A    between atoms: _434  and  _435
REMARK  185  A    between atoms: _437  and  _439
REMARK  186  A    between atoms: _439  and  _440
REMARK  187  A    between atoms: _442  and  _444
REMARK  188  A    between atoms: _444  and  _445
REMARK  189  A    between atoms: _444  and  _447
REMARK  190  A    between atoms: _447  and  _448
REMARK  191  A    between atoms: _454  and  _456
REMARK  192  A    between atoms: _456  and  _457
REMARK  193  A    between atoms: _456  and  _459
REMARK  194  A    between atoms: _459  and  _460
REMARK  195  A    between atoms: _463  and  _465
REMARK  196  A    between atoms: _465  and  _466
REMARK  197  A    between atoms: _465  and  _468
REMARK  198  A    between atoms: _471  and  _473
REMARK  199  A    between atoms: _473  and  _474
REMARK  200  A    between atoms: _473  and  _476
REMARK  201  A    between atoms: _476  and  _477
REMARK  202  A    between atoms: _480  and  _482
REMARK  203  A    between atoms: _482  and  _483
REMARK  204  A    between atoms: _482  and  _485
REMARK  205  A    between atoms: _485  and  _486
REMARK  206  A    between atoms: _490  and  _491
REMARK  207  A    between atoms: _496  and  _498
REMARK  208  A    between atoms: _498  and  _499
REMARK  209  A    between atoms: _498  and  _501
REMARK  210  A    between atoms: _504  and  _506
REMARK  211  A    between atoms: _506  and  _507
REMARK  212  A    between atoms: _506  and  _509
REMARK  213  A    between atoms: _509  and  _510
REMARK  214  A    between atoms: _515  and  _517
REMARK  215  A    between atoms: _517  and  _518
REMARK  216  A    between atoms: _517  and  _520
REMARK  217  A    between atoms: _520  and  _521
REMARK  218  A    between atoms: _524  and  _526
REMARK  219  A    between atoms: _526  and  _527
REMARK  220  A    between atoms: _526  and  _529
REMARK  221  A    between atoms: _529  and  _530
REMARK  222  A    between atoms: _533  and  _535
REMARK  223  A    between atoms: _535  and  _536
REMARK  224  A    between atoms: _538  and  _540
REMARK  225  A    between atoms: _540  and  _541
REMARK  226  A    between atoms: _540  and  _543
REMARK  227  A    between atoms: _543  and  _544
REMARK  228  A    between atoms: _544  and  _545
REMARK  229  A    between atoms: _545  and  _546
REMARK  230  A    between atoms: _555  and  _557
REMARK  231  A    between atoms: _557  and  _558
REMARK  232  A    between atoms: _557  and  _560
REMARK  233  A    between atoms: _560  and  _561
REMARK                            x       y       z     vdW  Elec       q    Type
REMARK                         _______ _______ _______ _____ _____    ______ ____
ROOT
ATOM      1  O   HOH     1       8.935  21.860  16.711  0.00  0.00    +0.000 OA
ENDROOT
TORSDOF 0
REMARK  Name = ../refined-set-2016/1mrw/1mrw_pocket.pdb
REMARK  233 active torsions:
REMARK  status: ('A' for Active; 'I' for Inactive)
REMARK    1  A    between atoms: _1  and  _3
REMARK    2  A    between atoms: _3  and  _4
REMARK    3  A    between atoms: _3  and  _6
REMARK    4  A    between atoms: _6  and  _7
REMARK    5  A    between atoms: _7  and  _8
REMARK    6  A    between atoms: _8  and  _9
REMARK    7  A    between atoms: _18  and  _20
REMARK    8  A    between atoms: _20  and  _21
REMARK    9  A    between atoms: _20  and  _23
REMARK   10  A    between atoms: _23  and  _24
REMARK   11  A    between atoms: _27  and  _29
REMARK   12  A    between atoms: _29  and  _30
REMARK   13  A    between atoms: _29  and  _32
REMARK   14  A    between atoms: _32  and  _33
REMARK   15  A    between atoms: _36  and  _38
REMARK   16  A    between atoms: _38  and  _39
REMARK   17  A    between atoms: _38  and  _41
REMARK   18  A    between atoms: _41  and  _42
REMARK   19  A    between atoms: _45  and  _47
REMARK   20  A    between atoms: _47  and  _48
REMARK   21  A    between atoms: _47  and  _50
REMARK   22  A    between atoms: _50  and  _51
REMARK   23  A    between atoms: _54  and  _56
REMARK   24  A    between atoms: _56  and  _57
REMARK   25  A    between atoms: _56  and  _59
REMARK   26  A    between atoms: _59  and  _60
REMARK   27  A    between atoms: _63  and  _65
REMARK   28  A    between atoms: _65  and  _66
REMARK   29  A    between atoms: _68  and  _70
REMARK   30  A    between atoms: _70  and  _71
REMARK   31  A    between atoms: _74  and  _76
REMARK   32  A    between atoms: _76  and  _77
REMARK   33  A    between atoms: _76  and  _79
REMARK   34  A    between atoms: _79  and  _80
REMARK   35  A    between atoms: _83  and  _85
REMARK   36  A    between atoms: _85  and  _86
REMARK   37  A    between atoms: _85  and  _88
REMARK   38  A    between atoms: _88  and  _89
REMARK   39  A    between atoms: _92  and  _94
REMARK   40  A    between atoms: _94  and  _95
REMARK   41  A    between atoms: _94  and  _97
REMARK   42  A    between atoms: _97  and  _98
REMARK   43  A    between atoms: _101  and  _103
REMARK   44  A    between atoms: _103  and  _104
REMARK   45  A    between atoms: _103  and  _106
REMARK   46  A    between atoms: _109  and  _111
REMARK   47  A    between atoms: _111  and  _112
REMARK   48  A    between atoms: _111  and  _114
REMARK   49  A    between atoms: _114  and  _115
REMARK   50  A    between atoms: _115  and  _116
REMARK   51  A    between atoms: _116  and  _117
REMARK   52  A    between atoms: _117  and  _118
REMARK   53  A    between atoms: _122  and  _124
REMARK   54  A    between atoms: _124  and  _125
REMARK   55  A    between atoms: _124  and  _127
REMARK   56  A    between atoms: _127  and  _128
REMARK   57  A    between atoms: _128  and  _129
REMARK   58  A    between atoms: _131  and  _133
REMARK   59  A    between atoms: _133  and  _134
REMARK   60  A    between atoms: _133  and  _136
REMARK   61  A    between atoms: _136  and  _137
REMARK   62  A    between atoms: _140  and  _142
REMARK   63  A    between atoms: _142  and  _143
REMARK   64  A    between atoms: _145  and  _147
REMARK   65  A    between atoms: _147  and  _148
REMARK   66  A    between atoms: _150  and  _152
REMARK   67  A    between atoms: _152  and  _153
REMARK   68  A    between atoms: _152  and  _155
REMARK   69  A    between atoms: _155  and  _156
REMARK   70  A    between atoms: _159  and  _161
REMARK   71  A    between atoms: _161  and  _162
REMARK   72  A    between atoms: _164  and  _166
REMARK   73  A    between atoms: _166  and  _167
REMARK   74  A    between atoms: _169  and  _171
REMARK   75  A    between atoms: _171  and  _172
REMARK   76  A    between atoms: _171  and  _174
REMARK   77  A    between atoms: _174  and  _175
REMARK   78  A    between atoms: _181  and  _183
REMARK   79  A    between atoms: _183  and  _184
REMARK   80  A    between atoms: _183  and  _186
REMARK   81  A    between atoms: _186  and  _187
REMARK   82  A    between atoms: _190  and  _192
REMARK   83  A    between atoms: _192  and  _193
REMARK   84  A    between atoms: _192  and  _195
REMARK   85  A    between atoms: _195  and  _196
REMARK   86  A    between atoms: _199  and  _201
REMARK   87  A    between atoms: _201  and  _202
REMARK   88  A    between atoms: _201  and  _204
REMARK   89  A    between atoms: _204  and  _205
REMARK   90  A    between atoms: _209  and  _210
REMARK   91  A    between atoms: _215  and  _217
REMARK   92  A    between atoms: _217  and  _218
REMARK   93  A    between atoms: _217  and  _220
REMARK   94  A    between atoms: _223  and  _225
REMARK   95  A    between atoms: _225  and  _226
REMARK   96  A    between atoms: _225  and  _228
REMARK   97  A    between atoms: _228  and  _229
REMARK   98  A    between atoms: _234  and  _236
REMARK   99  A    between atoms: _236  and  _237
REMARK  100  A    between atoms: _236  and  _239
REMARK  101  A    between atoms: _239  and  _240
REMARK  102  A    between atoms: _243  and  _245
REMARK  103  A    between atoms: _245  and  _246
REMARK  104  A    between atoms: _245  and  _248
REMARK  105  A    between atoms: _248  and  _249
REMARK  106  A    between atoms: _252  and  _254
REMARK  107  A    between atoms: _254  and  _255
REMARK  108  A    between atoms: _257  and  _259
REMARK  109  A    between atoms: _259  and  _260
REMARK  110  A    between atoms: _259  and  _262
REMARK  111  A    between atoms: _262  and  _263
REMARK  112  A    between atoms: _263  and  _264
REMARK  113  A    between atoms: _264  and  _265
REMARK  114  A    between atoms: _274  and  _276
REMARK  115  A    between atoms: _276  and  _277
REMARK  116  A    between atoms: _276  and  _279
REMARK  117  A    between atoms: _279  and  _280
REMARK  118  A    between atoms: _280  and  _281
REMARK  119  A    between atoms: _281  and  _282
REMARK  120  A    between atoms: _291  and  _293
REMARK  121  A    between atoms: _293  and  _294
REMARK  122  A    between atoms: _293  and  _296
REMARK  123  A    between atoms: _296  and  _297
REMARK  124  A    between atoms: _300  and  _302
REMARK  125  A    between atoms: _302  and  _303
REMARK  126  A    between atoms: _302  and  _305
REMARK  127  A    between atoms: _305  and  _306
REMARK  128  A    between atoms: _309  and  _311
REMARK  129  A    between atoms: _311  and  _312
REMARK  130  A    between atoms: _311  and  _314
REMARK  131  A    between atoms: _314  and  _315
REMARK  132  A    between atoms: _318  and  _320
REMARK  133  A    between atoms: _320  and  _321
REMARK  134  A    between atoms: _320  and  _323
REMARK  135  A    between atoms: _323  and  _324
REMARK  136  A    between atoms: _327  and  _329
REMARK  137  A    between atoms: _329  and  _330
REMARK  138  A    between atoms: _329  and  _332
REMARK  139  A    between atoms: _332  and  _333
REMARK  140  A    between atoms: _336  and  _338
REMARK  141  A    between atoms: _338  and  _339
REMARK  142  A    between atoms: _341  and  _343
REMARK  143  A    between atoms: _343  and  _344
REMARK  144  A    between atoms: _347  and  _349
REMARK  145  A    between atoms: _349  and  _350
REMARK  146  A    between atoms: _349  and  _352
REMARK  147  A    between atoms: _352  and  _353
REMARK  148  A    between atoms: _356  and  _358
REMARK  149  A    between atoms: _358  and  _359
REMARK  150  A    between atoms: _358  and  _361
REMARK  151  A    between atoms: _361  and  _362
REMARK  152  A    between atoms: _365  and  _367
REMARK  153  A    between atoms: _367  and  _368
REMARK  154  A    between atoms: _367  and  _370
REMARK  155  A    between atoms: _370  and  _371
REMARK  156  A    between atoms: _374  and  _376
REMARK  157  A    between atoms: _376  and  _377
REMARK  158  A    between atoms: _376  and  _379
REMARK  159  A    between atoms: _382  and  _384
REMARK  160  A    between atoms: _384  and  _385
REMARK  161  A    between atoms: _384  and  _387
REMARK  162  A    between atoms: _387  and  _388
REMARK  163  A    between atoms: _388  and  _389
REMARK  164  A    between atoms: _389  and  _390
REMARK  165  A    between atoms: _390  and  _391
REMARK  166  A    between atoms: _395  and  _397
REMARK  167  A    between atoms: _397  and  _398
REMARK  168  A    between atoms: _397  and  _400
REMARK  169  A    between atoms: _400  and  _401
REMARK  170  A    between atoms: _401  and  _402
REMARK  171  A    between atoms: _404  and  _406
REMARK  172  A    between atoms: _406  and  _407
REMARK  173  A    between atoms: _406  and  _409
REMARK  174  A    between atoms: _409  and  _410
REMARK  175  A    between atoms: _413  and  _415
REMARK  176  A    between atoms: _415  and  _416
REMARK  177  A    between atoms: _418  and  _420
REMARK  178  A    between atoms: _420  and  _421
REMARK  179  A    between atoms: _423  and  _425
REMARK  180  A    between atoms: _425  and  _426
REMARK  181  A    between atoms: _425  and  _428
REMARK  182  A    between atoms: _428  and  _429
REMARK  183  A    between atoms: _432  and  _434
REMARK  184  A    between atoms: _434  and  _435
REMARK  185  A    between atoms: _437  and  _439
REMARK  186  A    between atoms: _439  and  _440
REMARK  187  A    between atoms: _442  and  _444
REMARK  188  A    between atoms: _444  and  _445
REMARK  189  A    between atoms: _444  and  _447
REMARK  190  A    between atoms: _447  and  _448
REMARK  191  A    between atoms: _454  and  _456
REMARK  192  A    between atoms: _456  and  _457
REMARK  193  A    between atoms: _456  and  _459
REMARK  194  A    between atoms: _459  and  _460
REMARK  195  A    between atoms: _463  and  _465
REMARK  196  A    between atoms: _465  and  _466
REMARK  197  A    between atoms: _465  and  _468
REMARK  198  A    between atoms: _471  and  _473
REMARK  199  A    between atoms: _473  and  _474
REMARK  200  A    between atoms: _473  and  _476
REMARK  201  A    between atoms: _476  and  _477
REMARK  202  A    between atoms: _480  and  _482
REMARK  203  A    between atoms: _482  and  _483
REMARK  204  A    between atoms: _482  and  _485
REMARK  205  A    between atoms: _485  and  _486
REMARK  206  A    between atoms: _490  and  _491
REMARK  207  A    between atoms: _496  and  _498
REMARK  208  A    between atoms: _498  and  _499
REMARK  209  A    between atoms: _498  and  _501
REMARK  210  A    between atoms: _504  and  _506
REMARK  211  A    between atoms: _506  and  _507
REMARK  212  A    between atoms: _506  and  _509
REMARK  213  A    between atoms: _509  and  _510
REMARK  214  A    between atoms: _515  and  _517
REMARK  215  A    between atoms: _517  and  _518
REMARK  216  A    between atoms: _517  and  _520
REMARK  217  A    between atoms: _520  and  _521
REMARK  218  A    between atoms: _524  and  _526
REMARK  219  A    between atoms: _526  and  _527
REMARK  220  A    between atoms: _526  and  _529
REMARK  221  A    between atoms: _529  and  _530
REMARK  222  A    between atoms: _533  and  _535
REMARK  223  A    between atoms: _535  and  _536
REMARK  224  A    between atoms: _538  and  _540
REMARK  225  A    between atoms: _540  and  _541
REMARK  226  A    between atoms: _540  and  _543
REMARK  227  A    between atoms: _543  and  _544
REMARK  228  A    between atoms: _544  and  _545
REMARK  229  A    between atoms: _545  and  _546
REMARK  230  A    between atoms: _555  and  _557
REMARK  231  A    between atoms: _557  and  _558
REMARK  232  A    between atoms: _557  and  _560
REMARK  233  A    between atoms: _560  and  _561
REMARK                            x       y       z     vdW  Elec       q    Type
REMARK                         _______ _______ _______ _____ _____    ______ ____
ROOT
ATOM      1  O   HOH     1      25.538  25.864  16.153  0.00  0.00    +0.000 OA
ENDROOT
TORSDOF 0
REMARK  Name = ../refined-set-2016/1mrw/1mrw_pocket.pdb
REMARK  233 active torsions:
REMARK  status: ('A' for Active; 'I' for Inactive)
REMARK    1  A    between atoms: _1  and  _3
REMARK    2  A    between atoms: _3  and  _4
REMARK    3  A    between atoms: _3  and  _6
REMARK    4  A    between atoms: _6  and  _7
REMARK    5  A    between atoms: _7  and  _8
REMARK    6  A    between atoms: _8  and  _9
REMARK    7  A    between atoms: _18  and  _20
REMARK    8  A    between atoms: _20  and  _21
REMARK    9  A    between atoms: _20  and  _23
REMARK   10  A    between atoms: _23  and  _24
REMARK   11  A    between atoms: _27  and  _29
REMARK   12  A    between atoms: _29  and  _30
REMARK   13  A    between atoms: _29  and  _32
REMARK   14  A    between atoms: _32  and  _33
REMARK   15  A    between atoms: _36  and  _38
REMARK   16  A    between atoms: _38  and  _39
REMARK   17  A    between atoms: _38  and  _41
REMARK   18  A    between atoms: _41  and  _42
REMARK   19  A    between atoms: _45  and  _47
REMARK   20  A    between atoms: _47  and  _48
REMARK   21  A    between atoms: _47  and  _50
REMARK   22  A    between atoms: _50  and  _51
REMARK   23  A    between atoms: _54  and  _56
REMARK   24  A    between atoms: _56  and  _57
REMARK   25  A    between atoms: _56  and  _59
REMARK   26  A    between atoms: _59  and  _60
REMARK   27  A    between atoms: _63  and  _65
REMARK   28  A    between atoms: _65  and  _66
REMARK   29  A    between atoms: _68  and  _70
REMARK   30  A    between atoms: _70  and  _71
REMARK   31  A    between atoms: _74  and  _76
REMARK   32  A    between atoms: _76  and  _77
REMARK   33  A    between atoms: _76  and  _79
REMARK   34  A    between atoms: _79  and  _80
REMARK   35  A    between atoms: _83  and  _85
REMARK   36  A    between atoms: _85  and  _86
REMARK   37  A    between atoms: _85  and  _88
REMARK   38  A    between atoms: _88  and  _89
REMARK   39  A    between atoms: _92  and  _94
REMARK   40  A    between atoms: _94  and  _95
REMARK   41  A    between atoms: _94  and  _97
REMARK   42  A    between atoms: _97  and  _98
REMARK   43  A    between atoms: _101  and  _103
REMARK   44  A    between atoms: _103  and  _104
REMARK   45  A    between atoms: _103  and  _106
REMARK   46  A    between atoms: _109  and  _111
REMARK   47  A    between atoms: _111  and  _112
REMARK   48  A    between atoms: _111  and  _114
REMARK   49  A    between atoms: _114  and  _115
REMARK   50  A    between atoms: _115  and  _116
REMARK   51  A    between atoms: _116  and  _117
REMARK   52  A    between atoms: _117  and  _118
REMARK   53  A    between atoms: _122  and  _124
REMARK   54  A    between atoms: _124  and  _125
REMARK   55  A    between atoms: _124  and  _127
REMARK   56  A    between atoms: _127  and  _128
REMARK   57  A    between atoms: _128  and  _129
REMARK   58  A    between atoms: _131  and  _133
REMARK   59  A    between atoms: _133  and  _134
REMARK   60  A    between atoms: _133  and  _136
REMARK   61  A    between atoms: _136  and  _137
REMARK   62  A    between atoms: _140  and  _142
REMARK   63  A    between atoms: _142  and  _143
REMARK   64  A    between atoms: _145  and  _147
REMARK   65  A    between atoms: _147  and  _148
REMARK   66  A    between atoms: _150  and  _152
REMARK   67  A    between atoms: _152  and  _153
REMARK   68  A    between atoms: _152  and  _155
REMARK   69  A    between atoms: _155  and  _156
REMARK   70  A    between atoms: _159  and  _161
REMARK   71  A    between atoms: _161  and  _162
REMARK   72  A    between atoms: _164  and  _166
REMARK   73  A    between atoms: _166  and  _167
REMARK   74  A    between atoms: _169  and  _171
REMARK   75  A    between atoms: _171  and  _172
REMARK   76  A    between atoms: _171  and  _174
REMARK   77  A    between atoms: _174  and  _175
REMARK   78  A    between atoms: _181  and  _183
REMARK   79  A    between atoms: _183  and  _184
REMARK   80  A    between atoms: _183  and  _186
REMARK   81  A    between atoms: _186  and  _187
REMARK   82  A    between atoms: _190  and  _192
REMARK   83  A    between atoms: _192  and  _193
REMARK   84  A    between atoms: _192  and  _195
REMARK   85  A    between atoms: _195  and  _196
REMARK   86  A    between atoms: _199  and  _201
REMARK   87  A    between atoms: _201  and  _202
REMARK   88  A    between atoms: _201  and  _204
REMARK   89  A    between atoms: _204  and  _205
REMARK   90  A    between atoms: _209  and  _210
REMARK   91  A    between atoms: _215  and  _217
REMARK   92  A    between atoms: _217  and  _218
REMARK   93  A    between atoms: _217  and  _220
REMARK   94  A    between atoms: _223  and  _225
REMARK   95  A    between atoms: _225  and  _226
REMARK   96  A    between atoms: _225  and  _228
REMARK   97  A    between atoms: _228  and  _229
REMARK   98  A    between atoms: _234  and  _236
REMARK   99  A    between atoms: _236  and  _237
REMARK  100  A    between atoms: _236  and  _239
REMARK  101  A    between atoms: _239  and  _240
REMARK  102  A    between atoms: _243  and  _245
REMARK  103  A    between atoms: _245  and  _246
REMARK  104  A    between atoms: _245  and  _248
REMARK  105  A    between atoms: _248  and  _249
REMARK  106  A    between atoms: _252  and  _254
REMARK  107  A    between atoms: _254  and  _255
REMARK  108  A    between atoms: _257  and  _259
REMARK  109  A    between atoms: _259  and  _260
REMARK  110  A    between atoms: _259  and  _262
REMARK  111  A    between atoms: _262  and  _263
REMARK  112  A    between atoms: _263  and  _264
REMARK  113  A    between atoms: _264  and  _265
REMARK  114  A    between atoms: _274  and  _276
REMARK  115  A    between atoms: _276  and  _277
REMARK  116  A    between atoms: _276  and  _279
REMARK  117  A    between atoms: _279  and  _280
REMARK  118  A    between atoms: _280  and  _281
REMARK  119  A    between atoms: _281  and  _282
REMARK  120  A    between atoms: _291  and  _293
REMARK  121  A    between atoms: _293  and  _294
REMARK  122  A    between atoms: _293  and  _296
REMARK  123  A    between atoms: _296  and  _297
REMARK  124  A    between atoms: _300  and  _302
REMARK  125  A    between atoms: _302  and  _303
REMARK  126  A    between atoms: _302  and  _305
REMARK  127  A    between atoms: _305  and  _306
REMARK  128  A    between atoms: _309  and  _311
REMARK  129  A    between atoms: _311  and  _312
REMARK  130  A    between atoms: _311  and  _314
REMARK  131  A    between atoms: _314  and  _315
REMARK  132  A    between atoms: _318  and  _320
REMARK  133  A    between atoms: _320  and  _321
REMARK  134  A    between atoms: _320  and  _323
REMARK  135  A    between atoms: _323  and  _324
REMARK  136  A    between atoms: _327  and  _329
REMARK  137  A    between atoms: _329  and  _330
REMARK  138  A    between atoms: _329  and  _332
REMARK  139  A    between atoms: _332  and  _333
REMARK  140  A    between atoms: _336  and  _338
REMARK  141  A    between atoms: _338  and  _339
REMARK  142  A    between atoms: _341  and  _343
REMARK  143  A    between atoms: _343  and  _344
REMARK  144  A    between atoms: _347  and  _349
REMARK  145  A    between atoms: _349  and  _350
REMARK  146  A    between atoms: _349  and  _352
REMARK  147  A    between atoms: _352  and  _353
REMARK  148  A    between atoms: _356  and  _358
REMARK  149  A    between atoms: _358  and  _359
REMARK  150  A    between atoms: _358  and  _361
REMARK  151  A    between atoms: _361  and  _362
REMARK  152  A    between atoms: _365  and  _367
REMARK  153  A    between atoms: _367  and  _368
REMARK  154  A    between atoms: _367  and  _370
REMARK  155  A    between atoms: _370  and  _371
REMARK  156  A    between atoms: _374  and  _376
REMARK  157  A    between atoms: _376  and  _377
REMARK  158  A    between atoms: _376  and  _379
REMARK  159  A    between atoms: _382  and  _384
REMARK  160  A    between atoms: _384  and  _385
REMARK  161  A    between atoms: _384  and  _387
REMARK  162  A    between atoms: _387  and  _388
REMARK  163  A    between atoms: _388  and  _389
REMARK  164  A    between atoms: _389  and  _390
REMARK  165  A    between atoms: _390  and  _391
REMARK  166  A    between atoms: _395  and  _397
REMARK  167  A    between atoms: _397  and  _398
REMARK  168  A    between atoms: _397  and  _400
REMARK  169  A    between atoms: _400  and  _401
REMARK  170  A    between atoms: _401  and  _402
REMARK  171  A    between atoms: _404  and  _406
REMARK  172  A    between atoms: _406  and  _407
REMARK  173  A    between atoms: _406  and  _409
REMARK  174  A    between atoms: _409  and  _410
REMARK  175  A    between atoms: _413  and  _415
REMARK  176  A    between atoms: _415  and  _416
REMARK  177  A    between atoms: _418  and  _420
REMARK  178  A    between atoms: _420  and  _421
REMARK  179  A    between atoms: _423  and  _425
REMARK  180  A    between atoms: _425  and  _426
REMARK  181  A    between atoms: _425  and  _428
REMARK  182  A    between atoms: _428  and  _429
REMARK  183  A    between atoms: _432  and  _434
REMARK  184  A    between atoms: _434  and  _435
REMARK  185  A    between atoms: _437  and  _439
REMARK  186  A    between atoms: _439  and  _440
REMARK  187  A    between atoms: _442  and  _444
REMARK  188  A    between atoms: _444  and  _445
REMARK  189  A    between atoms: _444  and  _447
REMARK  190  A    between atoms: _447  and  _448
REMARK  191  A    between atoms: _454  and  _456
REMARK  192  A    between atoms: _456  and  _457
REMARK  193  A    between atoms: _456  and  _459
REMARK  194  A    between atoms: _459  and  _460
REMARK  195  A    between atoms: _463  and  _465
REMARK  196  A    between atoms: _465  and  _466
REMARK  197  A    between atoms: _465  and  _468
REMARK  198  A    between atoms: _471  and  _473
REMARK  199  A    between atoms: _473  and  _474
REMARK  200  A    between atoms: _473  and  _476
REMARK  201  A    between atoms: _476  and  _477
REMARK  202  A    between atoms: _480  and  _482
REMARK  203  A    between atoms: _482  and  _483
REMARK  204  A    between atoms: _482  and  _485
REMARK  205  A    between atoms: _485  and  _486
REMARK  206  A    between atoms: _490  and  _491
REMARK  207  A    between atoms: _496  and  _498
REMARK  208  A    between atoms: _498  and  _499
REMARK  209  A    between atoms: _498  and  _501
REMARK  210  A    between atoms: _504  and  _506
REMARK  211  A    between atoms: _506  and  _507
REMARK  212  A    between atoms: _506  and  _509
REMARK  213  A    between atoms: _509  and  _510
REMARK  214  A    between atoms: _515  and  _517
REMARK  215  A    between atoms: _517  and  _518
REMARK  216  A    between atoms: _517  and  _520
REMARK  217  A    between atoms: _520  and  _521
REMARK  218  A    between atoms: _524  and  _526
REMARK  219  A    between atoms: _526  and  _527
REMARK  220  A    between atoms: _526  and  _529
REMARK  221  A    between atoms: _529  and  _530
REMARK  222  A    between atoms: _533  and  _535
REMARK  223  A    between atoms: _535  and  _536
REMARK  224  A    between atoms: _538  and  _540
REMARK  225  A    between atoms: _540  and  _541
REMARK  226  A    between atoms: _540  and  _543
REMARK  227  A    between atoms: _543  and  _544
REMARK  228  A    between atoms: _544  and  _545
REMARK  229  A    between atoms: _545  and  _546
REMARK  230  A    between atoms: _555  and  _557
REMARK  231  A    between atoms: _557  and  _558
REMARK  232  A    between atoms: _557  and  _560
REMARK  233  A    between atoms: _560  and  _561
REMARK                            x       y       z     vdW  Elec       q    Type
REMARK                         _______ _______ _______ _____ _____    ______ ____
ROOT
ATOM      1  O   HOH     1       9.822  18.147  12.189  0.00  0.00    +0.000 OA
ENDROOT
TORSDOF 0
REMARK  Name = ../refined-set-2016/1mrw/1mrw_pocket.pdb
REMARK  233 active torsions:
REMARK  status: ('A' for Active; 'I' for Inactive)
REMARK    1  A    between atoms: _1  and  _3
REMARK    2  A    between atoms: _3  and  _4
REMARK    3  A    between atoms: _3  and  _6
REMARK    4  A    between atoms: _6  and  _7
REMARK    5  A    between atoms: _7  and  _8
REMARK    6  A    between atoms: _8  and  _9
REMARK    7  A    between atoms: _18  and  _20
REMARK    8  A    between atoms: _20  and  _21
REMARK    9  A    between atoms: _20  and  _23
REMARK   10  A    between atoms: _23  and  _24
REMARK   11  A    between atoms: _27  and  _29
REMARK   12  A    between atoms: _29  and  _30
REMARK   13  A    between atoms: _29  and  _32
REMARK   14  A    between atoms: _32  and  _33
REMARK   15  A    between atoms: _36  and  _38
REMARK   16  A    between atoms: _38  and  _39
REMARK   17  A    between atoms: _38  and  _41
REMARK   18  A    between atoms: _41  and  _42
REMARK   19  A    between atoms: _45  and  _47
REMARK   20  A    between atoms: _47  and  _48
REMARK   21  A    between atoms: _47  and  _50
REMARK   22  A    between atoms: _50  and  _51
REMARK   23  A    between atoms: _54  and  _56
REMARK   24  A    between atoms: _56  and  _57
REMARK   25  A    between atoms: _56  and  _59
REMARK   26  A    between atoms: _59  and  _60
REMARK   27  A    between atoms: _63  and  _65
REMARK   28  A    between atoms: _65  and  _66
REMARK   29  A    between atoms: _68  and  _70
REMARK   30  A    between atoms: _70  and  _71
REMARK   31  A    between atoms: _74  and  _76
REMARK   32  A    between atoms: _76  and  _77
REMARK   33  A    between atoms: _76  and  _79
REMARK   34  A    between atoms: _79  and  _80
REMARK   35  A    between atoms: _83  and  _85
REMARK   36  A    between atoms: _85  and  _86
REMARK   37  A    between atoms: _85  and  _88
REMARK   38  A    between atoms: _88  and  _89
REMARK   39  A    between atoms: _92  and  _94
REMARK   40  A    between atoms: _94  and  _95
REMARK   41  A    between atoms: _94  and  _97
REMARK   42  A    between atoms: _97  and  _98
REMARK   43  A    between atoms: _101  and  _103
REMARK   44  A    between atoms: _103  and  _104
REMARK   45  A    between atoms: _103  and  _106
REMARK   46  A    between atoms: _109  and  _111
REMARK   47  A    between atoms: _111  and  _112
REMARK   48  A    between atoms: _111  and  _114
REMARK   49  A    between atoms: _114  and  _115
REMARK   50  A    between atoms: _115  and  _116
REMARK   51  A    between atoms: _116  and  _117
REMARK   52  A    between atoms: _117  and  _118
REMARK   53  A    between atoms: _122  and  _124
REMARK   54  A    between atoms: _124  and  _125
REMARK   55  A    between atoms: _124  and  _127
REMARK   56  A    between atoms: _127  and  _128
REMARK   57  A    between atoms: _128  and  _129
REMARK   58  A    between atoms: _131  and  _133
REMARK   59  A    between atoms: _133  and  _134
REMARK   60  A    between atoms: _133  and  _136
REMARK   61  A    between atoms: _136  and  _137
REMARK   62  A    between atoms: _140  and  _142
REMARK   63  A    between atoms: _142  and  _143
REMARK   64  A    between atoms: _145  and  _147
REMARK   65  A    between atoms: _147  and  _148
REMARK   66  A    between atoms: _150  and  _152
REMARK   67  A    between atoms: _152  and  _153
REMARK   68  A    between atoms: _152  and  _155
REMARK   69  A    between atoms: _155  and  _156
REMARK   70  A    between atoms: _159  and  _161
REMARK   71  A    between atoms: _161  and  _162
REMARK   72  A    between atoms: _164  and  _166
REMARK   73  A    between atoms: _166  and  _167
REMARK   74  A    between atoms: _169  and  _171
REMARK   75  A    between atoms: _171  and  _172
REMARK   76  A    between atoms: _171  and  _174
REMARK   77  A    between atoms: _174  and  _175
REMARK   78  A    between atoms: _181  and  _183
REMARK   79  A    between atoms: _183  and  _184
REMARK   80  A    between atoms: _183  and  _186
REMARK   81  A    between atoms: _186  and  _187
REMARK   82  A    between atoms: _190  and  _192
REMARK   83  A    between atoms: _192  and  _193
REMARK   84  A    between atoms: _192  and  _195
REMARK   85  A    between atoms: _195  and  _196
REMARK   86  A    between atoms: _199  and  _201
REMARK   87  A    between atoms: _201  and  _202
REMARK   88  A    between atoms: _201  and  _204
REMARK   89  A    between atoms: _204  and  _205
REMARK   90  A    between atoms: _209  and  _210
REMARK   91  A    between atoms: _215  and  _217
REMARK   92  A    between atoms: _217  and  _218
REMARK   93  A    between atoms: _217  and  _220
REMARK   94  A    between atoms: _223  and  _225
REMARK   95  A    between atoms: _225  and  _226
REMARK   96  A    between atoms: _225  and  _228
REMARK   97  A    between atoms: _228  and  _229
REMARK   98  A    between atoms: _234  and  _236
REMARK   99  A    between atoms: _236  and  _237
REMARK  100  A    between atoms: _236  and  _239
REMARK  101  A    between atoms: _239  and  _240
REMARK  102  A    between atoms: _243  and  _245
REMARK  103  A    between atoms: _245  and  _246
REMARK  104  A    between atoms: _245  and  _248
REMARK  105  A    between atoms: _248  and  _249
REMARK  106  A    between atoms: _252  and  _254
REMARK  107  A    between atoms: _254  and  _255
REMARK  108  A    between atoms: _257  and  _259
REMARK  109  A    between atoms: _259  and  _260
REMARK  110  A    between atoms: _259  and  _262
REMARK  111  A    between atoms: _262  and  _263
REMARK  112  A    between atoms: _263  and  _264
REMARK  113  A    between atoms: _264  and  _265
REMARK  114  A    between atoms: _274  and  _276
REMARK  115  A    between atoms: _276  and  _277
REMARK  116  A    between atoms: _276  and  _279
REMARK  117  A    between atoms: _279  and  _280
REMARK  118  A    between atoms: _280  and  _281
REMARK  119  A    between atoms: _281  and  _282
REMARK  120  A    between atoms: _291  and  _293
REMARK  121  A    between atoms: _293  and  _294
REMARK  122  A    between atoms: _293  and  _296
REMARK  123  A    between atoms: _296  and  _297
REMARK  124  A    between atoms: _300  and  _302
REMARK  125  A    between atoms: _302  and  _303
REMARK  126  A    between atoms: _302  and  _305
REMARK  127  A    between atoms: _305  and  _306
REMARK  128  A    between atoms: _309  and  _311
REMARK  129  A    between atoms: _311  and  _312
REMARK  130  A    between atoms: _311  and  _314
REMARK  131  A    between atoms: _314  and  _315
REMARK  132  A    between atoms: _318  and  _320
REMARK  133  A    between atoms: _320  and  _321
REMARK  134  A    between atoms: _320  and  _323
REMARK  135  A    between atoms: _323  and  _324
REMARK  136  A    between atoms: _327  and  _329
REMARK  137  A    between atoms: _329  and  _330
REMARK  138  A    between atoms: _329  and  _332
REMARK  139  A    between atoms: _332  and  _333
REMARK  140  A    between atoms: _336  and  _338
REMARK  141  A    between atoms: _338  and  _339
REMARK  142  A    between atoms: _341  and  _343
REMARK  143  A    between atoms: _343  and  _344
REMARK  144  A    between atoms: _347  and  _349
REMARK  145  A    between atoms: _349  and  _350
REMARK  146  A    between atoms: _349  and  _352
REMARK  147  A    between atoms: _352  and  _353
REMARK  148  A    between atoms: _356  and  _358
REMARK  149  A    between atoms: _358  and  _359
REMARK  150  A    between atoms: _358  and  _361
REMARK  151  A    between atoms: _361  and  _362
REMARK  152  A    between atoms: _365  and  _367
REMARK  153  A    between atoms: _367  and  _368
REMARK  154  A    between atoms: _367  and  _370
REMARK  155  A    between atoms: _370  and  _371
REMARK  156  A    between atoms: _374  and  _376
REMARK  157  A    between atoms: _376  and  _377
REMARK  158  A    between atoms: _376  and  _379
REMARK  159  A    between atoms: _382  and  _384
REMARK  160  A    between atoms: _384  and  _385
REMARK  161  A    between atoms: _384  and  _387
REMARK  162  A    between atoms: _387  and  _388
REMARK  163  A    between atoms: _388  and  _389
REMARK  164  A    between atoms: _389  and  _390
REMARK  165  A    between atoms: _390  and  _391
REMARK  166  A    between atoms: _395  and  _397
REMARK  167  A    between atoms: _397  and  _398
REMARK  168  A    between atoms: _397  and  _400
REMARK  169  A    between atoms: _400  and  _401
REMARK  170  A    between atoms: _401  and  _402
REMARK  171  A    between atoms: _404  and  _406
REMARK  172  A    between atoms: _406  and  _407
REMARK  173  A    between atoms: _406  and  _409
REMARK  174  A    between atoms: _409  and  _410
REMARK  175  A    between atoms: _413  and  _415
REMARK  176  A    between atoms: _415  and  _416
REMARK  177  A    between atoms: _418  and  _420
REMARK  178  A    between atoms: _420  and  _421
REMARK  179  A    between atoms: _423  and  _425
REMARK  180  A    between atoms: _425  and  _426
REMARK  181  A    between atoms: _425  and  _428
REMARK  182  A    between atoms: _428  and  _429
REMARK  183  A    between atoms: _432  and  _434
REMARK  184  A    between atoms: _434  and  _435
REMARK  185  A    between atoms: _437  and  _439
REMARK  186  A    between atoms: _439  and  _440
REMARK  187  A    between atoms: _442  and  _444
REMARK  188  A    between atoms: _444  and  _445
REMARK  189  A    between atoms: _444  and  _447
REMARK  190  A    between atoms: _447  and  _448
REMARK  191  A    between atoms: _454  and  _456
REMARK  192  A    between atoms: _456  and  _457
REMARK  193  A    between atoms: _456  and  _459
REMARK  194  A    between atoms: _459  and  _460
REMARK  195  A    between atoms: _463  and  _465
REMARK  196  A    between atoms: _465  and  _466
REMARK  197  A    between atoms: _465  and  _468
REMARK  198  A    between atoms: _471  and  _473
REMARK  199  A    between atoms: _473  and  _474
REMARK  200  A    between atoms: _473  and  _476
REMARK  201  A    between atoms: _476  and  _477
REMARK  202  A    between atoms: _480  and  _482
REMARK  203  A    between atoms: _482  and  _483
REMARK  204  A    between atoms: _482  and  _485
REMARK  205  A    between atoms: _485  and  _486
REMARK  206  A    between atoms: _490  and  _491
REMARK  207  A    between atoms: _496  and  _498
REMARK  208  A    between atoms: _498  and  _499
REMARK  209  A    between atoms: _498  and  _501
REMARK  210  A    between atoms: _504  and  _506
REMARK  211  A    between atoms: _506  and  _507
REMARK  212  A    between atoms: _506  and  _509
REMARK  213  A    between atoms: _509  and  _510
REMARK  214  A    between atoms: _515  and  _517
REMARK  215  A    between atoms: _517  and  _518
REMARK  216  A    between atoms: _517  and  _520
REMARK  217  A    between atoms: _520  and  _521
REMARK  218  A    between atoms: _524  and  _526
REMARK  219  A    between atoms: _526  and  _527
REMARK  220  A    between atoms: _526  and  _529
REMARK  221  A    between atoms: _529  and  _530
REMARK  222  A    between atoms: _533  and  _535
REMARK  223  A    between atoms: _535  and  _536
REMARK  224  A    between atoms: _538  and  _540
REMARK  225  A    between atoms: _540  and  _541
REMARK  226  A    between atoms: _540  and  _543
REMARK  227  A    between atoms: _543  and  _544
REMARK  228  A    between atoms: _544  and  _545
REMARK  229  A    between atoms: _545  and  _546
REMARK  230  A    between atoms: _555  and  _557
REMARK  231  A    between atoms: _557  and  _558
REMARK  232  A    between atoms: _557  and  _560
REMARK  233  A    between atoms: _560  and  _561
REMARK                            x       y       z     vdW  Elec       q    Type
REMARK                         _______ _______ _______ _____ _____    ______ ____
ROOT
ATOM      1  O   HOH     1      24.339  25.496  18.553  0.00  0.00    +0.000 OA
ENDROOT
TORSDOF 0
REMARK  Name = ../refined-set-2016/1mrw/1mrw_pocket.pdb
REMARK  233 active torsions:
REMARK  status: ('A' for Active; 'I' for Inactive)
REMARK    1  A    between atoms: _1  and  _3
REMARK    2  A    between atoms: _3  and  _4
REMARK    3  A    between atoms: _3  and  _6
REMARK    4  A    between atoms: _6  and  _7
REMARK    5  A    between atoms: _7  and  _8
REMARK    6  A    between atoms: _8  and  _9
REMARK    7  A    between atoms: _18  and  _20
REMARK    8  A    between atoms: _20  and  _21
REMARK    9  A    between atoms: _20  and  _23
REMARK   10  A    between atoms: _23  and  _24
REMARK   11  A    between atoms: _27  and  _29
REMARK   12  A    between atoms: _29  and  _30
REMARK   13  A    between atoms: _29  and  _32
REMARK   14  A    between atoms: _32  and  _33
REMARK   15  A    between atoms: _36  and  _38
REMARK   16  A    between atoms: _38  and  _39
REMARK   17  A    between atoms: _38  and  _41
REMARK   18  A    between atoms: _41  and  _42
REMARK   19  A    between atoms: _45  and  _47
REMARK   20  A    between atoms: _47  and  _48
REMARK   21  A    between atoms: _47  and  _50
REMARK   22  A    between atoms: _50  and  _51
REMARK   23  A    between atoms: _54  and  _56
REMARK   24  A    between atoms: _56  and  _57
REMARK   25  A    between atoms: _56  and  _59
REMARK   26  A    between atoms: _59  and  _60
REMARK   27  A    between atoms: _63  and  _65
REMARK   28  A    between atoms: _65  and  _66
REMARK   29  A    between atoms: _68  and  _70
REMARK   30  A    between atoms: _70  and  _71
REMARK   31  A    between atoms: _74  and  _76
REMARK   32  A    between atoms: _76  and  _77
REMARK   33  A    between atoms: _76  and  _79
REMARK   34  A    between atoms: _79  and  _80
REMARK   35  A    between atoms: _83  and  _85
REMARK   36  A    between atoms: _85  and  _86
REMARK   37  A    between atoms: _85  and  _88
REMARK   38  A    between atoms: _88  and  _89
REMARK   39  A    between atoms: _92  and  _94
REMARK   40  A    between atoms: _94  and  _95
REMARK   41  A    between atoms: _94  and  _97
REMARK   42  A    between atoms: _97  and  _98
REMARK   43  A    between atoms: _101  and  _103
REMARK   44  A    between atoms: _103  and  _104
REMARK   45  A    between atoms: _103  and  _106
REMARK   46  A    between atoms: _109  and  _111
REMARK   47  A    between atoms: _111  and  _112
REMARK   48  A    between atoms: _111  and  _114
REMARK   49  A    between atoms: _114  and  _115
REMARK   50  A    between atoms: _115  and  _116
REMARK   51  A    between atoms: _116  and  _117
REMARK   52  A    between atoms: _117  and  _118
REMARK   53  A    between atoms: _122  and  _124
REMARK   54  A    between atoms: _124  and  _125
REMARK   55  A    between atoms: _124  and  _127
REMARK   56  A    between atoms: _127  and  _128
REMARK   57  A    between atoms: _128  and  _129
REMARK   58  A    between atoms: _131  and  _133
REMARK   59  A    between atoms: _133  and  _134
REMARK   60  A    between atoms: _133  and  _136
REMARK   61  A    between atoms: _136  and  _137
REMARK   62  A    between atoms: _140  and  _142
REMARK   63  A    between atoms: _142  and  _143
REMARK   64  A    between atoms: _145  and  _147
REMARK   65  A    between atoms: _147  and  _148
REMARK   66  A    between atoms: _150  and  _152
REMARK   67  A    between atoms: _152  and  _153
REMARK   68  A    between atoms: _152  and  _155
REMARK   69  A    between atoms: _155  and  _156
REMARK   70  A    between atoms: _159  and  _161
REMARK   71  A    between atoms: _161  and  _162
REMARK   72  A    between atoms: _164  and  _166
REMARK   73  A    between atoms: _166  and  _167
REMARK   74  A    between atoms: _169  and  _171
REMARK   75  A    between atoms: _171  and  _172
REMARK   76  A    between atoms: _171  and  _174
REMARK   77  A    between atoms: _174  and  _175
REMARK   78  A    between atoms: _181  and  _183
REMARK   79  A    between atoms: _183  and  _184
REMARK   80  A    between atoms: _183  and  _186
REMARK   81  A    between atoms: _186  and  _187
REMARK   82  A    between atoms: _190  and  _192
REMARK   83  A    between atoms: _192  and  _193
REMARK   84  A    between atoms: _192  and  _195
REMARK   85  A    between atoms: _195  and  _196
REMARK   86  A    between atoms: _199  and  _201
REMARK   87  A    between atoms: _201  and  _202
REMARK   88  A    between atoms: _201  and  _204
REMARK   89  A    between atoms: _204  and  _205
REMARK   90  A    between atoms: _209  and  _210
REMARK   91  A    between atoms: _215  and  _217
REMARK   92  A    between atoms: _217  and  _218
REMARK   93  A    between atoms: _217  and  _220
REMARK   94  A    between atoms: _223  and  _225
REMARK   95  A    between atoms: _225  and  _226
REMARK   96  A    between atoms: _225  and  _228
REMARK   97  A    between atoms: _228  and  _229
REMARK   98  A    between atoms: _234  and  _236
REMARK   99  A    between atoms: _236  and  _237
REMARK  100  A    between atoms: _236  and  _239
REMARK  101  A    between atoms: _239  and  _240
REMARK  102  A    between atoms: _243  and  _245
REMARK  103  A    between atoms: _245  and  _246
REMARK  104  A    between atoms: _245  and  _248
REMARK  105  A    between atoms: _248  and  _249
REMARK  106  A    between atoms: _252  and  _254
REMARK  107  A    between atoms: _254  and  _255
REMARK  108  A    between atoms: _257  and  _259
REMARK  109  A    between atoms: _259  and  _260
REMARK  110  A    between atoms: _259  and  _262
REMARK  111  A    between atoms: _262  and  _263
REMARK  112  A    between atoms: _263  and  _264
REMARK  113  A    between atoms: _264  and  _265
REMARK  114  A    between atoms: _274  and  _276
REMARK  115  A    between atoms: _276  and  _277
REMARK  116  A    between atoms: _276  and  _279
REMARK  117  A    between atoms: _279  and  _280
REMARK  118  A    between atoms: _280  and  _281
REMARK  119  A    between atoms: _281  and  _282
REMARK  120  A    between atoms: _291  and  _293
REMARK  121  A    between atoms: _293  and  _294
REMARK  122  A    between atoms: _293  and  _296
REMARK  123  A    between atoms: _296  and  _297
REMARK  124  A    between atoms: _300  and  _302
REMARK  125  A    between atoms: _302  and  _303
REMARK  126  A    between atoms: _302  and  _305
REMARK  127  A    between atoms: _305  and  _306
REMARK  128  A    between atoms: _309  and  _311
REMARK  129  A    between atoms: _311  and  _312
REMARK  130  A    between atoms: _311  and  _314
REMARK  131  A    between atoms: _314  and  _315
REMARK  132  A    between atoms: _318  and  _320
REMARK  133  A    between atoms: _320  and  _321
REMARK  134  A    between atoms: _320  and  _323
REMARK  135  A    between atoms: _323  and  _324
REMARK  136  A    between atoms: _327  and  _329
REMARK  137  A    between atoms: _329  and  _330
REMARK  138  A    between atoms: _329  and  _332
REMARK  139  A    between atoms: _332  and  _333
REMARK  140  A    between atoms: _336  and  _338
REMARK  141  A    between atoms: _338  and  _339
REMARK  142  A    between atoms: _341  and  _343
REMARK  143  A    between atoms: _343  and  _344
REMARK  144  A    between atoms: _347  and  _349
REMARK  145  A    between atoms: _349  and  _350
REMARK  146  A    between atoms: _349  and  _352
REMARK  147  A    between atoms: _352  and  _353
REMARK  148  A    between atoms: _356  and  _358
REMARK  149  A    between atoms: _358  and  _359
REMARK  150  A    between atoms: _358  and  _361
REMARK  151  A    between atoms: _361  and  _362
REMARK  152  A    between atoms: _365  and  _367
REMARK  153  A    between atoms: _367  and  _368
REMARK  154  A    between atoms: _367  and  _370
REMARK  155  A    between atoms: _370  and  _371
REMARK  156  A    between atoms: _374  and  _376
REMARK  157  A    between atoms: _376  and  _377
REMARK  158  A    between atoms: _376  and  _379
REMARK  159  A    between atoms: _382  and  _384
REMARK  160  A    between atoms: _384  and  _385
REMARK  161  A    between atoms: _384  and  _387
REMARK  162  A    between atoms: _387  and  _388
REMARK  163  A    between atoms: _388  and  _389
REMARK  164  A    between atoms: _389  and  _390
REMARK  165  A    between atoms: _390  and  _391
REMARK  166  A    between atoms: _395  and  _397
REMARK  167  A    between atoms: _397  and  _398
REMARK  168  A    between atoms: _397  and  _400
REMARK  169  A    between atoms: _400  and  _401
REMARK  170  A    between atoms: _401  and  _402
REMARK  171  A    between atoms: _404  and  _406
REMARK  172  A    between atoms: _406  and  _407
REMARK  173  A    between atoms: _406  and  _409
REMARK  174  A    between atoms: _409  and  _410
REMARK  175  A    between atoms: _413  and  _415
REMARK  176  A    between atoms: _415  and  _416
REMARK  177  A    between atoms: _418  and  _420
REMARK  178  A    between atoms: _420  and  _421
REMARK  179  A    between atoms: _423  and  _425
REMARK  180  A    between atoms: _425  and  _426
REMARK  181  A    between atoms: _425  and  _428
REMARK  182  A    between atoms: _428  and  _429
REMARK  183  A    between atoms: _432  and  _434
REMARK  184  A    between atoms: _434  and  _435
REMARK  185  A    between atoms: _437  and  _439
REMARK  186  A    between atoms: _439  and  _440
REMARK  187  A    between atoms: _442  and  _444
REMARK  188  A    between atoms: _444  and  _445
REMARK  189  A    between atoms: _444  and  _447
REMARK  190  A    between atoms: _447  and  _448
REMARK  191  A    between atoms: _454  and  _456
REMARK  192  A    between atoms: _456  and  _457
REMARK  193  A    between atoms: _456  and  _459
REMARK  194  A    between atoms: _459  and  _460
REMARK  195  A    between atoms: _463  and  _465
REMARK  196  A    between atoms: _465  and  _466
REMARK  197  A    between atoms: _465  and  _468
REMARK  198  A    between atoms: _471  and  _473
REMARK  199  A    between atoms: _473  and  _474
REMARK  200  A    between atoms: _473  and  _476
REMARK  201  A    between atoms: _476  and  _477
REMARK  202  A    between atoms: _480  and  _482
REMARK  203  A    between atoms: _482  and  _483
REMARK  204  A    between atoms: _482  and  _485
REMARK  205  A    between atoms: _485  and  _486
REMARK  206  A    between atoms: _490  and  _491
REMARK  207  A    between atoms: _496  and  _498
REMARK  208  A    between atoms: _498  and  _499
REMARK  209  A    between atoms: _498  and  _501
REMARK  210  A    between atoms: _504  and  _506
REMARK  211  A    between atoms: _506  and  _507
REMARK  212  A    between atoms: _506  and  _509
REMARK  213  A    between atoms: _509  and  _510
REMARK  214  A    between atoms: _515  and  _517
REMARK  215  A    between atoms: _517  and  _518
REMARK  216  A    between atoms: _517  and  _520
REMARK  217  A    between atoms: _520  and  _521
REMARK  218  A    between atoms: _524  and  _526
REMARK  219  A    between atoms: _526  and  _527
REMARK  220  A    between atoms: _526  and  _529
REMARK  221  A    between atoms: _529  and  _530
REMARK  222  A    between atoms: _533  and  _535
REMARK  223  A    between atoms: _535  and  _536
REMARK  224  A    between atoms: _538  and  _540
REMARK  225  A    between atoms: _540  and  _541
REMARK  226  A    between atoms: _540  and  _543
REMARK  227  A    between atoms: _543  and  _544
REMARK  228  A    between atoms: _544  and  _545
REMARK  229  A    between atoms: _545  and  _546
REMARK  230  A    between atoms: _555  and  _557
REMARK  231  A    between atoms: _557  and  _558
REMARK  232  A    between atoms: _557  and  _560
REMARK  233  A    between atoms: _560  and  _561
REMARK                            x       y       z     vdW  Elec       q    Type
REMARK                         _______ _______ _______ _____ _____    ______ ____
ROOT
ATOM      1  O   HOH     1      11.580  17.372   6.807  0.00  0.00    +0.000 OA
ENDROOT
TORSDOF 0
REMARK  Name = ../refined-set-2016/1mrw/1mrw_pocket.pdb
REMARK  233 active torsions:
REMARK  status: ('A' for Active; 'I' for Inactive)
REMARK    1  A    between atoms: _1  and  _3
REMARK    2  A    between atoms: _3  and  _4
REMARK    3  A    between atoms: _3  and  _6
REMARK    4  A    between atoms: _6  and  _7
REMARK    5  A    between atoms: _7  and  _8
REMARK    6  A    between atoms: _8  and  _9
REMARK    7  A    between atoms: _18  and  _20
REMARK    8  A    between atoms: _20  and  _21
REMARK    9  A    between atoms: _20  and  _23
REMARK   10  A    between atoms: _23  and  _24
REMARK   11  A    between atoms: _27  and  _29
REMARK   12  A    between atoms: _29  and  _30
REMARK   13  A    between atoms: _29  and  _32
REMARK   14  A    between atoms: _32  and  _33
REMARK   15  A    between atoms: _36  and  _38
REMARK   16  A    between atoms: _38  and  _39
REMARK   17  A    between atoms: _38  and  _41
REMARK   18  A    between atoms: _41  and  _42
REMARK   19  A    between atoms: _45  and  _47
REMARK   20  A    between atoms: _47  and  _48
REMARK   21  A    between atoms: _47  and  _50
REMARK   22  A    between atoms: _50  and  _51
REMARK   23  A    between atoms: _54  and  _56
REMARK   24  A    between atoms: _56  and  _57
REMARK   25  A    between atoms: _56  and  _59
REMARK   26  A    between atoms: _59  and  _60
REMARK   27  A    between atoms: _63  and  _65
REMARK   28  A    between atoms: _65  and  _66
REMARK   29  A    between atoms: _68  and  _70
REMARK   30  A    between atoms: _70  and  _71
REMARK   31  A    between atoms: _74  and  _76
REMARK   32  A    between atoms: _76  and  _77
REMARK   33  A    between atoms: _76  and  _79
REMARK   34  A    between atoms: _79  and  _80
REMARK   35  A    between atoms: _83  and  _85
REMARK   36  A    between atoms: _85  and  _86
REMARK   37  A    between atoms: _85  and  _88
REMARK   38  A    between atoms: _88  and  _89
REMARK   39  A    between atoms: _92  and  _94
REMARK   40  A    between atoms: _94  and  _95
REMARK   41  A    between atoms: _94  and  _97
REMARK   42  A    between atoms: _97  and  _98
REMARK   43  A    between atoms: _101  and  _103
REMARK   44  A    between atoms: _103  and  _104
REMARK   45  A    between atoms: _103  and  _106
REMARK   46  A    between atoms: _109  and  _111
REMARK   47  A    between atoms: _111  and  _112
REMARK   48  A    between atoms: _111  and  _114
REMARK   49  A    between atoms: _114  and  _115
REMARK   50  A    between atoms: _115  and  _116
REMARK   51  A    between atoms: _116  and  _117
REMARK   52  A    between atoms: _117  and  _118
REMARK   53  A    between atoms: _122  and  _124
REMARK   54  A    between atoms: _124  and  _125
REMARK   55  A    between atoms: _124  and  _127
REMARK   56  A    between atoms: _127  and  _128
REMARK   57  A    between atoms: _128  and  _129
REMARK   58  A    between atoms: _131  and  _133
REMARK   59  A    between atoms: _133  and  _134
REMARK   60  A    between atoms: _133  and  _136
REMARK   61  A    between atoms: _136  and  _137
REMARK   62  A    between atoms: _140  and  _142
REMARK   63  A    between atoms: _142  and  _143
REMARK   64  A    between atoms: _145  and  _147
REMARK   65  A    between atoms: _147  and  _148
REMARK   66  A    between atoms: _150  and  _152
REMARK   67  A    between atoms: _152  and  _153
REMARK   68  A    between atoms: _152  and  _155
REMARK   69  A    between atoms: _155  and  _156
REMARK   70  A    between atoms: _159  and  _161
REMARK   71  A    between atoms: _161  and  _162
REMARK   72  A    between atoms: _164  and  _166
REMARK   73  A    between atoms: _166  and  _167
REMARK   74  A    between atoms: _169  and  _171
REMARK   75  A    between atoms: _171  and  _172
REMARK   76  A    between atoms: _171  and  _174
REMARK   77  A    between atoms: _174  and  _175
REMARK   78  A    between atoms: _181  and  _183
REMARK   79  A    between atoms: _183  and  _184
REMARK   80  A    between atoms: _183  and  _186
REMARK   81  A    between atoms: _186  and  _187
REMARK   82  A    between atoms: _190  and  _192
REMARK   83  A    between atoms: _192  and  _193
REMARK   84  A    between atoms: _192  and  _195
REMARK   85  A    between atoms: _195  and  _196
REMARK   86  A    between atoms: _199  and  _201
REMARK   87  A    between atoms: _201  and  _202
REMARK   88  A    between atoms: _201  and  _204
REMARK   89  A    between atoms: _204  and  _205
REMARK   90  A    between atoms: _209  and  _210
REMARK   91  A    between atoms: _215  and  _217
REMARK   92  A    between atoms: _217  and  _218
REMARK   93  A    between atoms: _217  and  _220
REMARK   94  A    between atoms: _223  and  _225
REMARK   95  A    between atoms: _225  and  _226
REMARK   96  A    between atoms: _225  and  _228
REMARK   97  A    between atoms: _228  and  _229
REMARK   98  A    between atoms: _234  and  _236
REMARK   99  A    between atoms: _236  and  _237
REMARK  100  A    between atoms: _236  and  _239
REMARK  101  A    between atoms: _239  and  _240
REMARK  102  A    between atoms: _243  and  _245
REMARK  103  A    between atoms: _245  and  _246
REMARK  104  A    between atoms: _245  and  _248
REMARK  105  A    between atoms: _248  and  _249
REMARK  106  A    between atoms: _252  and  _254
REMARK  107  A    between atoms: _254  and  _255
REMARK  108  A    between atoms: _257  and  _259
REMARK  109  A    between atoms: _259  and  _260
REMARK  110  A    between atoms: _259  and  _262
REMARK  111  A    between atoms: _262  and  _263
REMARK  112  A    between atoms: _263  and  _264
REMARK  113  A    between atoms: _264  and  _265
REMARK  114  A    between atoms: _274  and  _276
REMARK  115  A    between atoms: _276  and  _277
REMARK  116  A    between atoms: _276  and  _279
REMARK  117  A    between atoms: _279  and  _280
REMARK  118  A    between atoms: _280  and  _281
REMARK  119  A    between atoms: _281  and  _282
REMARK  120  A    between atoms: _291  and  _293
REMARK  121  A    between atoms: _293  and  _294
REMARK  122  A    between atoms: _293  and  _296
REMARK  123  A    between atoms: _296  and  _297
REMARK  124  A    between atoms: _300  and  _302
REMARK  125  A    between atoms: _302  and  _303
REMARK  126  A    between atoms: _302  and  _305
REMARK  127  A    between atoms: _305  and  _306
REMARK  128  A    between atoms: _309  and  _311
REMARK  129  A    between atoms: _311  and  _312
REMARK  130  A    between atoms: _311  and  _314
REMARK  131  A    between atoms: _314  and  _315
REMARK  132  A    between atoms: _318  and  _320
REMARK  133  A    between atoms: _320  and  _321
REMARK  134  A    between atoms: _320  and  _323
REMARK  135  A    between atoms: _323  and  _324
REMARK  136  A    between atoms: _327  and  _329
REMARK  137  A    between atoms: _329  and  _330
REMARK  138  A    between atoms: _329  and  _332
REMARK  139  A    between atoms: _332  and  _333
REMARK  140  A    between atoms: _336  and  _338
REMARK  141  A    between atoms: _338  and  _339
REMARK  142  A    between atoms: _341  and  _343
REMARK  143  A    between atoms: _343  and  _344
REMARK  144  A    between atoms: _347  and  _349
REMARK  145  A    between atoms: _349  and  _350
REMARK  146  A    between atoms: _349  and  _352
REMARK  147  A    between atoms: _352  and  _353
REMARK  148  A    between atoms: _356  and  _358
REMARK  149  A    between atoms: _358  and  _359
REMARK  150  A    between atoms: _358  and  _361
REMARK  151  A    between atoms: _361  and  _362
REMARK  152  A    between atoms: _365  and  _367
REMARK  153  A    between atoms: _367  and  _368
REMARK  154  A    between atoms: _367  and  _370
REMARK  155  A    between atoms: _370  and  _371
REMARK  156  A    between atoms: _374  and  _376
REMARK  157  A    between atoms: _376  and  _377
REMARK  158  A    between atoms: _376  and  _379
REMARK  159  A    between atoms: _382  and  _384
REMARK  160  A    between atoms: _384  and  _385
REMARK  161  A    between atoms: _384  and  _387
REMARK  162  A    between atoms: _387  and  _388
REMARK  163  A    between atoms: _388  and  _389
REMARK  164  A    between atoms: _389  and  _390
REMARK  165  A    between atoms: _390  and  _391
REMARK  166  A    between atoms: _395  and  _397
REMARK  167  A    between atoms: _397  and  _398
REMARK  168  A    between atoms: _397  and  _400
REMARK  169  A    between atoms: _400  and  _401
REMARK  170  A    between atoms: _401  and  _402
REMARK  171  A    between atoms: _404  and  _406
REMARK  172  A    between atoms: _406  and  _407
REMARK  173  A    between atoms: _406  and  _409
REMARK  174  A    between atoms: _409  and  _410
REMARK  175  A    between atoms: _413  and  _415
REMARK  176  A    between atoms: _415  and  _416
REMARK  177  A    between atoms: _418  and  _420
REMARK  178  A    between atoms: _420  and  _421
REMARK  179  A    between atoms: _423  and  _425
REMARK  180  A    between atoms: _425  and  _426
REMARK  181  A    between atoms: _425  and  _428
REMARK  182  A    between atoms: _428  and  _429
REMARK  183  A    between atoms: _432  and  _434
REMARK  184  A    between atoms: _434  and  _435
REMARK  185  A    between atoms: _437  and  _439
REMARK  186  A    between atoms: _439  and  _440
REMARK  187  A    between atoms: _442  and  _444
REMARK  188  A    between atoms: _444  and  _445
REMARK  189  A    between atoms: _444  and  _447
REMARK  190  A    between atoms: _447  and  _448
REMARK  191  A    between atoms: _454  and  _456
REMARK  192  A    between atoms: _456  and  _457
REMARK  193  A    between atoms: _456  and  _459
REMARK  194  A    between atoms: _459  and  _460
REMARK  195  A    between atoms: _463  and  _465
REMARK  196  A    between atoms: _465  and  _466
REMARK  197  A    between atoms: _465  and  _468
REMARK  198  A    between atoms: _471  and  _473
REMARK  199  A    between atoms: _473  and  _474
REMARK  200  A    between atoms: _473  and  _476
REMARK  201  A    between atoms: _476  and  _477
REMARK  202  A    between atoms: _480  and  _482
REMARK  203  A    between atoms: _482  and  _483
REMARK  204  A    between atoms: _482  and  _485
REMARK  205  A    between atoms: _485  and  _486
REMARK  206  A    between atoms: _490  and  _491
REMARK  207  A    between atoms: _496  and  _498
REMARK  208  A    between atoms: _498  and  _499
REMARK  209  A    between atoms: _498  and  _501
REMARK  210  A    between atoms: _504  and  _506
REMARK  211  A    between atoms: _506  and  _507
REMARK  212  A    between atoms: _506  and  _509
REMARK  213  A    between atoms: _509  and  _510
REMARK  214  A    between atoms: _515  and  _517
REMARK  215  A    between atoms: _517  and  _518
REMARK  216  A    between atoms: _517  and  _520
REMARK  217  A    between atoms: _520  and  _521
REMARK  218  A    between atoms: _524  and  _526
REMARK  219  A    between atoms: _526  and  _527
REMARK  220  A    between atoms: _526  and  _529
REMARK  221  A    between atoms: _529  and  _530
REMARK  222  A    between atoms: _533  and  _535
REMARK  223  A    between atoms: _535  and  _536
REMARK  224  A    between atoms: _538  and  _540
REMARK  225  A    between atoms: _540  and  _541
REMARK  226  A    between atoms: _540  and  _543
REMARK  227  A    between atoms: _543  and  _544
REMARK  228  A    between atoms: _544  and  _545
REMARK  229  A    between atoms: _545  and  _546
REMARK  230  A    between atoms: _555  and  _557
REMARK  231  A    between atoms: _557  and  _558
REMARK  232  A    between atoms: _557  and  _560
REMARK  233  A    between atoms: _560  and  _561
REMARK                            x       y       z     vdW  Elec       q    Type
REMARK                         _______ _______ _______ _____ _____    ______ ____
ROOT
ATOM      1  O   HOH     1      20.000  28.640  21.639  0.00  0.00    +0.000 OA
ENDROOT
TORSDOF 0
REMARK  Name = ../refined-set-2016/1mrw/1mrw_pocket.pdb
REMARK  233 active torsions:
REMARK  status: ('A' for Active; 'I' for Inactive)
REMARK    1  A    between atoms: _1  and  _3
REMARK    2  A    between atoms: _3  and  _4
REMARK    3  A    between atoms: _3  and  _6
REMARK    4  A    between atoms: _6  and  _7
REMARK    5  A    between atoms: _7  and  _8
REMARK    6  A    between atoms: _8  and  _9
REMARK    7  A    between atoms: _18  and  _20
REMARK    8  A    between atoms: _20  and  _21
REMARK    9  A    between atoms: _20  and  _23
REMARK   10  A    between atoms: _23  and  _24
REMARK   11  A    between atoms: _27  and  _29
REMARK   12  A    between atoms: _29  and  _30
REMARK   13  A    between atoms: _29  and  _32
REMARK   14  A    between atoms: _32  and  _33
REMARK   15  A    between atoms: _36  and  _38
REMARK   16  A    between atoms: _38  and  _39
REMARK   17  A    between atoms: _38  and  _41
REMARK   18  A    between atoms: _41  and  _42
REMARK   19  A    between atoms: _45  and  _47
REMARK   20  A    between atoms: _47  and  _48
REMARK   21  A    between atoms: _47  and  _50
REMARK   22  A    between atoms: _50  and  _51
REMARK   23  A    between atoms: _54  and  _56
REMARK   24  A    between atoms: _56  and  _57
REMARK   25  A    between atoms: _56  and  _59
REMARK   26  A    between atoms: _59  and  _60
REMARK   27  A    between atoms: _63  and  _65
REMARK   28  A    between atoms: _65  and  _66
REMARK   29  A    between atoms: _68  and  _70
REMARK   30  A    between atoms: _70  and  _71
REMARK   31  A    between atoms: _74  and  _76
REMARK   32  A    between atoms: _76  and  _77
REMARK   33  A    between atoms: _76  and  _79
REMARK   34  A    between atoms: _79  and  _80
REMARK   35  A    between atoms: _83  and  _85
REMARK   36  A    between atoms: _85  and  _86
REMARK   37  A    between atoms: _85  and  _88
REMARK   38  A    between atoms: _88  and  _89
REMARK   39  A    between atoms: _92  and  _94
REMARK   40  A    between atoms: _94  and  _95
REMARK   41  A    between atoms: _94  and  _97
REMARK   42  A    between atoms: _97  and  _98
REMARK   43  A    between atoms: _101  and  _103
REMARK   44  A    between atoms: _103  and  _104
REMARK   45  A    between atoms: _103  and  _106
REMARK   46  A    between atoms: _109  and  _111
REMARK   47  A    between atoms: _111  and  _112
REMARK   48  A    between atoms: _111  and  _114
REMARK   49  A    between atoms: _114  and  _115
REMARK   50  A    between atoms: _115  and  _116
REMARK   51  A    between atoms: _116  and  _117
REMARK   52  A    between atoms: _117  and  _118
REMARK   53  A    between atoms: _122  and  _124
REMARK   54  A    between atoms: _124  and  _125
REMARK   55  A    between atoms: _124  and  _127
REMARK   56  A    between atoms: _127  and  _128
REMARK   57  A    between atoms: _128  and  _129
REMARK   58  A    between atoms: _131  and  _133
REMARK   59  A    between atoms: _133  and  _134
REMARK   60  A    between atoms: _133  and  _136
REMARK   61  A    between atoms: _136  and  _137
REMARK   62  A    between atoms: _140  and  _142
REMARK   63  A    between atoms: _142  and  _143
REMARK   64  A    between atoms: _145  and  _147
REMARK   65  A    between atoms: _147  and  _148
REMARK   66  A    between atoms: _150  and  _152
REMARK   67  A    between atoms: _152  and  _153
REMARK   68  A    between atoms: _152  and  _155
REMARK   69  A    between atoms: _155  and  _156
REMARK   70  A    between atoms: _159  and  _161
REMARK   71  A    between atoms: _161  and  _162
REMARK   72  A    between atoms: _164  and  _166
REMARK   73  A    between atoms: _166  and  _167
REMARK   74  A    between atoms: _169  and  _171
REMARK   75  A    between atoms: _171  and  _172
REMARK   76  A    between atoms: _171  and  _174
REMARK   77  A    between atoms: _174  and  _175
REMARK   78  A    between atoms: _181  and  _183
REMARK   79  A    between atoms: _183  and  _184
REMARK   80  A    between atoms: _183  and  _186
REMARK   81  A    between atoms: _186  and  _187
REMARK   82  A    between atoms: _190  and  _192
REMARK   83  A    between atoms: _192  and  _193
REMARK   84  A    between atoms: _192  and  _195
REMARK   85  A    between atoms: _195  and  _196
REMARK   86  A    between atoms: _199  and  _201
REMARK   87  A    between atoms: _201  and  _202
REMARK   88  A    between atoms: _201  and  _204
REMARK   89  A    between atoms: _204  and  _205
REMARK   90  A    between atoms: _209  and  _210
REMARK   91  A    between atoms: _215  and  _217
REMARK   92  A    between atoms: _217  and  _218
REMARK   93  A    between atoms: _217  and  _220
REMARK   94  A    between atoms: _223  and  _225
REMARK   95  A    between atoms: _225  and  _226
REMARK   96  A    between atoms: _225  and  _228
REMARK   97  A    between atoms: _228  and  _229
REMARK   98  A    between atoms: _234  and  _236
REMARK   99  A    between atoms: _236  and  _237
REMARK  100  A    between atoms: _236  and  _239
REMARK  101  A    between atoms: _239  and  _240
REMARK  102  A    between atoms: _243  and  _245
REMARK  103  A    between atoms: _245  and  _246
REMARK  104  A    between atoms: _245  and  _248
REMARK  105  A    between atoms: _248  and  _249
REMARK  106  A    between atoms: _252  and  _254
REMARK  107  A    between atoms: _254  and  _255
REMARK  108  A    between atoms: _257  and  _259
REMARK  109  A    between atoms: _259  and  _260
REMARK  110  A    between atoms: _259  and  _262
REMARK  111  A    between atoms: _262  and  _263
REMARK  112  A    between atoms: _263  and  _264
REMARK  113  A    between atoms: _264  and  _265
REMARK  114  A    between atoms: _274  and  _276
REMARK  115  A    between atoms: _276  and  _277
REMARK  116  A    between atoms: _276  and  _279
REMARK  117  A    between atoms: _279  and  _280
REMARK  118  A    between atoms: _280  and  _281
REMARK  119  A    between atoms: _281  and  _282
REMARK  120  A    between atoms: _291  and  _293
REMARK  121  A    between atoms: _293  and  _294
REMARK  122  A    between atoms: _293  and  _296
REMARK  123  A    between atoms: _296  and  _297
REMARK  124  A    between atoms: _300  and  _302
REMARK  125  A    between atoms: _302  and  _303
REMARK  126  A    between atoms: _302  and  _305
REMARK  127  A    between atoms: _305  and  _306
REMARK  128  A    between atoms: _309  and  _311
REMARK  129  A    between atoms: _311  and  _312
REMARK  130  A    between atoms: _311  and  _314
REMARK  131  A    between atoms: _314  and  _315
REMARK  132  A    between atoms: _318  and  _320
REMARK  133  A    between atoms: _320  and  _321
REMARK  134  A    between atoms: _320  and  _323
REMARK  135  A    between atoms: _323  and  _324
REMARK  136  A    between atoms: _327  and  _329
REMARK  137  A    between atoms: _329  and  _330
REMARK  138  A    between atoms: _329  and  _332
REMARK  139  A    between atoms: _332  and  _333
REMARK  140  A    between atoms: _336  and  _338
REMARK  141  A    between atoms: _338  and  _339
REMARK  142  A    between atoms: _341  and  _343
REMARK  143  A    between atoms: _343  and  _344
REMARK  144  A    between atoms: _347  and  _349
REMARK  145  A    between atoms: _349  and  _350
REMARK  146  A    between atoms: _349  and  _352
REMARK  147  A    between atoms: _352  and  _353
REMARK  148  A    between atoms: _356  and  _358
REMARK  149  A    between atoms: _358  and  _359
REMARK  150  A    between atoms: _358  and  _361
REMARK  151  A    between atoms: _361  and  _362
REMARK  152  A    between atoms: _365  and  _367
REMARK  153  A    between atoms: _367  and  _368
REMARK  154  A    between atoms: _367  and  _370
REMARK  155  A    between atoms: _370  and  _371
REMARK  156  A    between atoms: _374  and  _376
REMARK  157  A    between atoms: _376  and  _377
REMARK  158  A    between atoms: _376  and  _379
REMARK  159  A    between atoms: _382  and  _384
REMARK  160  A    between atoms: _384  and  _385
REMARK  161  A    between atoms: _384  and  _387
REMARK  162  A    between atoms: _387  and  _388
REMARK  163  A    between atoms: _388  and  _389
REMARK  164  A    between atoms: _389  and  _390
REMARK  165  A    between atoms: _390  and  _391
REMARK  166  A    between atoms: _395  and  _397
REMARK  167  A    between atoms: _397  and  _398
REMARK  168  A    between atoms: _397  and  _400
REMARK  169  A    between atoms: _400  and  _401
REMARK  170  A    between atoms: _401  and  _402
REMARK  171  A    between atoms: _404  and  _406
REMARK  172  A    between atoms: _406  and  _407
REMARK  173  A    between atoms: _406  and  _409
REMARK  174  A    between atoms: _409  and  _410
REMARK  175  A    between atoms: _413  and  _415
REMARK  176  A    between atoms: _415  and  _416
REMARK  177  A    between atoms: _418  and  _420
REMARK  178  A    between atoms: _420  and  _421
REMARK  179  A    between atoms: _423  and  _425
REMARK  180  A    between atoms: _425  and  _426
REMARK  181  A    between atoms: _425  and  _428
REMARK  182  A    between atoms: _428  and  _429
REMARK  183  A    between atoms: _432  and  _434
REMARK  184  A    between atoms: _434  and  _435
REMARK  185  A    between atoms: _437  and  _439
REMARK  186  A    between atoms: _439  and  _440
REMARK  187  A    between atoms: _442  and  _444
REMARK  188  A    between atoms: _444  and  _445
REMARK  189  A    between atoms: _444  and  _447
REMARK  190  A    between atoms: _447  and  _448
REMARK  191  A    between atoms: _454  and  _456
REMARK  192  A    between atoms: _456  and  _457
REMARK  193  A    between atoms: _456  and  _459
REMARK  194  A    between atoms: _459  and  _460
REMARK  195  A    between atoms: _463  and  _465
REMARK  196  A    between atoms: _465  and  _466
REMARK  197  A    between atoms: _465  and  _468
REMARK  198  A    between atoms: _471  and  _473
REMARK  199  A    between atoms: _473  and  _474
REMARK  200  A    between atoms: _473  and  _476
REMARK  201  A    between atoms: _476  and  _477
REMARK  202  A    between atoms: _480  and  _482
REMARK  203  A    between atoms: _482  and  _483
REMARK  204  A    between atoms: _482  and  _485
REMARK  205  A    between atoms: _485  and  _486
REMARK  206  A    between atoms: _490  and  _491
REMARK  207  A    between atoms: _496  and  _498
REMARK  208  A    between atoms: _498  and  _499
REMARK  209  A    between atoms: _498  and  _501
REMARK  210  A    between atoms: _504  and  _506
REMARK  211  A    between atoms: _506  and  _507
REMARK  212  A    between atoms: _506  and  _509
REMARK  213  A    between atoms: _509  and  _510
REMARK  214  A    between atoms: _515  and  _517
REMARK  215  A    between atoms: _517  and  _518
REMARK  216  A    between atoms: _517  and  _520
REMARK  217  A    between atoms: _520  and  _521
REMARK  218  A    between atoms: _524  and  _526
REMARK  219  A    between atoms: _526  and  _527
REMARK  220  A    between atoms: _526  and  _529
REMARK  221  A    between atoms: _529  and  _530
REMARK  222  A    between atoms: _533  and  _535
REMARK  223  A    between atoms: _535  and  _536
REMARK  224  A    between atoms: _538  and  _540
REMARK  225  A    between atoms: _540  and  _541
REMARK  226  A    between atoms: _540  and  _543
REMARK  227  A    between atoms: _543  and  _544
REMARK  228  A    between atoms: _544  and  _545
REMARK  229  A    between atoms: _545  and  _546
REMARK  230  A    between atoms: _555  and  _557
REMARK  231  A    between atoms: _557  and  _558
REMARK  232  A    between atoms: _557  and  _560
REMARK  233  A    between atoms: _560  and  _561
REMARK                            x       y       z     vdW  Elec       q    Type
REMARK                         _______ _______ _______ _____ _____    ______ ____
ROOT
ATOM      1  O   HOH     1       7.340  22.759   9.031  0.00  0.00    +0.000 OA
ENDROOT
TORSDOF 0
REMARK  Name = ../refined-set-2016/1mrw/1mrw_pocket.pdb
REMARK  233 active torsions:
REMARK  status: ('A' for Active; 'I' for Inactive)
REMARK    1  A    between atoms: _1  and  _3
REMARK    2  A    between atoms: _3  and  _4
REMARK    3  A    between atoms: _3  and  _6
REMARK    4  A    between atoms: _6  and  _7
REMARK    5  A    between atoms: _7  and  _8
REMARK    6  A    between atoms: _8  and  _9
REMARK    7  A    between atoms: _18  and  _20
REMARK    8  A    between atoms: _20  and  _21
REMARK    9  A    between atoms: _20  and  _23
REMARK   10  A    between atoms: _23  and  _24
REMARK   11  A    between atoms: _27  and  _29
REMARK   12  A    between atoms: _29  and  _30
REMARK   13  A    between atoms: _29  and  _32
REMARK   14  A    between atoms: _32  and  _33
REMARK   15  A    between atoms: _36  and  _38
REMARK   16  A    between atoms: _38  and  _39
REMARK   17  A    between atoms: _38  and  _41
REMARK   18  A    between atoms: _41  and  _42
REMARK   19  A    between atoms: _45  and  _47
REMARK   20  A    between atoms: _47  and  _48
REMARK   21  A    between atoms: _47  and  _50
REMARK   22  A    between atoms: _50  and  _51
REMARK   23  A    between atoms: _54  and  _56
REMARK   24  A    between atoms: _56  and  _57
REMARK   25  A    between atoms: _56  and  _59
REMARK   26  A    between atoms: _59  and  _60
REMARK   27  A    between atoms: _63  and  _65
REMARK   28  A    between atoms: _65  and  _66
REMARK   29  A    between atoms: _68  and  _70
REMARK   30  A    between atoms: _70  and  _71
REMARK   31  A    between atoms: _74  and  _76
REMARK   32  A    between atoms: _76  and  _77
REMARK   33  A    between atoms: _76  and  _79
REMARK   34  A    between atoms: _79  and  _80
REMARK   35  A    between atoms: _83  and  _85
REMARK   36  A    between atoms: _85  and  _86
REMARK   37  A    between atoms: _85  and  _88
REMARK   38  A    between atoms: _88  and  _89
REMARK   39  A    between atoms: _92  and  _94
REMARK   40  A    between atoms: _94  and  _95
REMARK   41  A    between atoms: _94  and  _97
REMARK   42  A    between atoms: _97  and  _98
REMARK   43  A    between atoms: _101  and  _103
REMARK   44  A    between atoms: _103  and  _104
REMARK   45  A    between atoms: _103  and  _106
REMARK   46  A    between atoms: _109  and  _111
REMARK   47  A    between atoms: _111  and  _112
REMARK   48  A    between atoms: _111  and  _114
REMARK   49  A    between atoms: _114  and  _115
REMARK   50  A    between atoms: _115  and  _116
REMARK   51  A    between atoms: _116  and  _117
REMARK   52  A    between atoms: _117  and  _118
REMARK   53  A    between atoms: _122  and  _124
REMARK   54  A    between atoms: _124  and  _125
REMARK   55  A    between atoms: _124  and  _127
REMARK   56  A    between atoms: _127  and  _128
REMARK   57  A    between atoms: _128  and  _129
REMARK   58  A    between atoms: _131  and  _133
REMARK   59  A    between atoms: _133  and  _134
REMARK   60  A    between atoms: _133  and  _136
REMARK   61  A    between atoms: _136  and  _137
REMARK   62  A    between atoms: _140  and  _142
REMARK   63  A    between atoms: _142  and  _143
REMARK   64  A    between atoms: _145  and  _147
REMARK   65  A    between atoms: _147  and  _148
REMARK   66  A    between atoms: _150  and  _152
REMARK   67  A    between atoms: _152  and  _153
REMARK   68  A    between atoms: _152  and  _155
REMARK   69  A    between atoms: _155  and  _156
REMARK   70  A    between atoms: _159  and  _161
REMARK   71  A    between atoms: _161  and  _162
REMARK   72  A    between atoms: _164  and  _166
REMARK   73  A    between atoms: _166  and  _167
REMARK   74  A    between atoms: _169  and  _171
REMARK   75  A    between atoms: _171  and  _172
REMARK   76  A    between atoms: _171  and  _174
REMARK   77  A    between atoms: _174  and  _175
REMARK   78  A    between atoms: _181  and  _183
REMARK   79  A    between atoms: _183  and  _184
REMARK   80  A    between atoms: _183  and  _186
REMARK   81  A    between atoms: _186  and  _187
REMARK   82  A    between atoms: _190  and  _192
REMARK   83  A    between atoms: _192  and  _193
REMARK   84  A    between atoms: _192  and  _195
REMARK   85  A    between atoms: _195  and  _196
REMARK   86  A    between atoms: _199  and  _201
REMARK   87  A    between atoms: _201  and  _202
REMARK   88  A    between atoms: _201  and  _204
REMARK   89  A    between atoms: _204  and  _205
REMARK   90  A    between atoms: _209  and  _210
REMARK   91  A    between atoms: _215  and  _217
REMARK   92  A    between atoms: _217  and  _218
REMARK   93  A    between atoms: _217  and  _220
REMARK   94  A    between atoms: _223  and  _225
REMARK   95  A    between atoms: _225  and  _226
REMARK   96  A    between atoms: _225  and  _228
REMARK   97  A    between atoms: _228  and  _229
REMARK   98  A    between atoms: _234  and  _236
REMARK   99  A    between atoms: _236  and  _237
REMARK  100  A    between atoms: _236  and  _239
REMARK  101  A    between atoms: _239  and  _240
REMARK  102  A    between atoms: _243  and  _245
REMARK  103  A    between atoms: _245  and  _246
REMARK  104  A    between atoms: _245  and  _248
REMARK  105  A    between atoms: _248  and  _249
REMARK  106  A    between atoms: _252  and  _254
REMARK  107  A    between atoms: _254  and  _255
REMARK  108  A    between atoms: _257  and  _259
REMARK  109  A    between atoms: _259  and  _260
REMARK  110  A    between atoms: _259  and  _262
REMARK  111  A    between atoms: _262  and  _263
REMARK  112  A    between atoms: _263  and  _264
REMARK  113  A    between atoms: _264  and  _265
REMARK  114  A    between atoms: _274  and  _276
REMARK  115  A    between atoms: _276  and  _277
REMARK  116  A    between atoms: _276  and  _279
REMARK  117  A    between atoms: _279  and  _280
REMARK  118  A    between atoms: _280  and  _281
REMARK  119  A    between atoms: _281  and  _282
REMARK  120  A    between atoms: _291  and  _293
REMARK  121  A    between atoms: _293  and  _294
REMARK  122  A    between atoms: _293  and  _296
REMARK  123  A    between atoms: _296  and  _297
REMARK  124  A    between atoms: _300  and  _302
REMARK  125  A    between atoms: _302  and  _303
REMARK  126  A    between atoms: _302  and  _305
REMARK  127  A    between atoms: _305  and  _306
REMARK  128  A    between atoms: _309  and  _311
REMARK  129  A    between atoms: _311  and  _312
REMARK  130  A    between atoms: _311  and  _314
REMARK  131  A    between atoms: _314  and  _315
REMARK  132  A    between atoms: _318  and  _320
REMARK  133  A    between atoms: _320  and  _321
REMARK  134  A    between atoms: _320  and  _323
REMARK  135  A    between atoms: _323  and  _324
REMARK  136  A    between atoms: _327  and  _329
REMARK  137  A    between atoms: _329  and  _330
REMARK  138  A    between atoms: _329  and  _332
REMARK  139  A    between atoms: _332  and  _333
REMARK  140  A    between atoms: _336  and  _338
REMARK  141  A    between atoms: _338  and  _339
REMARK  142  A    between atoms: _341  and  _343
REMARK  143  A    between atoms: _343  and  _344
REMARK  144  A    between atoms: _347  and  _349
REMARK  145  A    between atoms: _349  and  _350
REMARK  146  A    between atoms: _349  and  _352
REMARK  147  A    between atoms: _352  and  _353
REMARK  148  A    between atoms: _356  and  _358
REMARK  149  A    between atoms: _358  and  _359
REMARK  150  A    between atoms: _358  and  _361
REMARK  151  A    between atoms: _361  and  _362
REMARK  152  A    between atoms: _365  and  _367
REMARK  153  A    between atoms: _367  and  _368
REMARK  154  A    between atoms: _367  and  _370
REMARK  155  A    between atoms: _370  and  _371
REMARK  156  A    between atoms: _374  and  _376
REMARK  157  A    between atoms: _376  and  _377
REMARK  158  A    between atoms: _376  and  _379
REMARK  159  A    between atoms: _382  and  _384
REMARK  160  A    between atoms: _384  and  _385
REMARK  161  A    between atoms: _384  and  _387
REMARK  162  A    between atoms: _387  and  _388
REMARK  163  A    between atoms: _388  and  _389
REMARK  164  A    between atoms: _389  and  _390
REMARK  165  A    between atoms: _390  and  _391
REMARK  166  A    between atoms: _395  and  _397
REMARK  167  A    between atoms: _397  and  _398
REMARK  168  A    between atoms: _397  and  _400
REMARK  169  A    between atoms: _400  and  _401
REMARK  170  A    between atoms: _401  and  _402
REMARK  171  A    between atoms: _404  and  _406
REMARK  172  A    between atoms: _406  and  _407
REMARK  173  A    between atoms: _406  and  _409
REMARK  174  A    between atoms: _409  and  _410
REMARK  175  A    between atoms: _413  and  _415
REMARK  176  A    between atoms: _415  and  _416
REMARK  177  A    between atoms: _418  and  _420
REMARK  178  A    between atoms: _420  and  _421
REMARK  179  A    between atoms: _423  and  _425
REMARK  180  A    between atoms: _425  and  _426
REMARK  181  A    between atoms: _425  and  _428
REMARK  182  A    between atoms: _428  and  _429
REMARK  183  A    between atoms: _432  and  _434
REMARK  184  A    between atoms: _434  and  _435
REMARK  185  A    between atoms: _437  and  _439
REMARK  186  A    between atoms: _439  and  _440
REMARK  187  A    between atoms: _442  and  _444
REMARK  188  A    between atoms: _444  and  _445
REMARK  189  A    between atoms: _444  and  _447
REMARK  190  A    between atoms: _447  and  _448
REMARK  191  A    between atoms: _454  and  _456
REMARK  192  A    between atoms: _456  and  _457
REMARK  193  A    between atoms: _456  and  _459
REMARK  194  A    between atoms: _459  and  _460
REMARK  195  A    between atoms: _463  and  _465
REMARK  196  A    between atoms: _465  and  _466
REMARK  197  A    between atoms: _465  and  _468
REMARK  198  A    between atoms: _471  and  _473
REMARK  199  A    between atoms: _473  and  _474
REMARK  200  A    between atoms: _473  and  _476
REMARK  201  A    between atoms: _476  and  _477
REMARK  202  A    between atoms: _480  and  _482
REMARK  203  A    between atoms: _482  and  _483
REMARK  204  A    between atoms: _482  and  _485
REMARK  205  A    between atoms: _485  and  _486
REMARK  206  A    between atoms: _490  and  _491
REMARK  207  A    between atoms: _496  and  _498
REMARK  208  A    between atoms: _498  and  _499
REMARK  209  A    between atoms: _498  and  _501
REMARK  210  A    between atoms: _504  and  _506
REMARK  211  A    between atoms: _506  and  _507
REMARK  212  A    between atoms: _506  and  _509
REMARK  213  A    between atoms: _509  and  _510
REMARK  214  A    between atoms: _515  and  _517
REMARK  215  A    between atoms: _517  and  _518
REMARK  216  A    between atoms: _517  and  _520
REMARK  217  A    between atoms: _520  and  _521
REMARK  218  A    between atoms: _524  and  _526
REMARK  219  A    between atoms: _526  and  _527
REMARK  220  A    between atoms: _526  and  _529
REMARK  221  A    between atoms: _529  and  _530
REMARK  222  A    between atoms: _533  and  _535
REMARK  223  A    between atoms: _535  and  _536
REMARK  224  A    between atoms: _538  and  _540
REMARK  225  A    between atoms: _540  and  _541
REMARK  226  A    between atoms: _540  and  _543
REMARK  227  A    between atoms: _543  and  _544
REMARK  228  A    between atoms: _544  and  _545
REMARK  229  A    between atoms: _545  and  _546
REMARK  230  A    between atoms: _555  and  _557
REMARK  231  A    between atoms: _557  and  _558
REMARK  232  A    between atoms: _557  and  _560
REMARK  233  A    between atoms: _560  and  _561
REMARK                            x       y       z     vdW  Elec       q    Type
REMARK                         _______ _______ _______ _____ _____    ______ ____
ROOT
ATOM      1  O   HOH     1       8.958  24.275   7.699  0.00  0.00    +0.000 OA
ENDROOT
TORSDOF 0
REMARK  Name = ../refined-set-2016/1mrw/1mrw_pocket.pdb
REMARK  233 active torsions:
REMARK  status: ('A' for Active; 'I' for Inactive)
REMARK    1  A    between atoms: _1  and  _3
REMARK    2  A    between atoms: _3  and  _4
REMARK    3  A    between atoms: _3  and  _6
REMARK    4  A    between atoms: _6  and  _7
REMARK    5  A    between atoms: _7  and  _8
REMARK    6  A    between atoms: _8  and  _9
REMARK    7  A    between atoms: _18  and  _20
REMARK    8  A    between atoms: _20  and  _21
REMARK    9  A    between atoms: _20  and  _23
REMARK   10  A    between atoms: _23  and  _24
REMARK   11  A    between atoms: _27  and  _29
REMARK   12  A    between atoms: _29  and  _30
REMARK   13  A    between atoms: _29  and  _32
REMARK   14  A    between atoms: _32  and  _33
REMARK   15  A    between atoms: _36  and  _38
REMARK   16  A    between atoms: _38  and  _39
REMARK   17  A    between atoms: _38  and  _41
REMARK   18  A    between atoms: _41  and  _42
REMARK   19  A    between atoms: _45  and  _47
REMARK   20  A    between atoms: _47  and  _48
REMARK   21  A    between atoms: _47  and  _50
REMARK   22  A    between atoms: _50  and  _51
REMARK   23  A    between atoms: _54  and  _56
REMARK   24  A    between atoms: _56  and  _57
REMARK   25  A    between atoms: _56  and  _59
REMARK   26  A    between atoms: _59  and  _60
REMARK   27  A    between atoms: _63  and  _65
REMARK   28  A    between atoms: _65  and  _66
REMARK   29  A    between atoms: _68  and  _70
REMARK   30  A    between atoms: _70  and  _71
REMARK   31  A    between atoms: _74  and  _76
REMARK   32  A    between atoms: _76  and  _77
REMARK   33  A    between atoms: _76  and  _79
REMARK   34  A    between atoms: _79  and  _80
REMARK   35  A    between atoms: _83  and  _85
REMARK   36  A    between atoms: _85  and  _86
REMARK   37  A    between atoms: _85  and  _88
REMARK   38  A    between atoms: _88  and  _89
REMARK   39  A    between atoms: _92  and  _94
REMARK   40  A    between atoms: _94  and  _95
REMARK   41  A    between atoms: _94  and  _97
REMARK   42  A    between atoms: _97  and  _98
REMARK   43  A    between atoms: _101  and  _103
REMARK   44  A    between atoms: _103  and  _104
REMARK   45  A    between atoms: _103  and  _106
REMARK   46  A    between atoms: _109  and  _111
REMARK   47  A    between atoms: _111  and  _112
REMARK   48  A    between atoms: _111  and  _114
REMARK   49  A    between atoms: _114  and  _115
REMARK   50  A    between atoms: _115  and  _116
REMARK   51  A    between atoms: _116  and  _117
REMARK   52  A    between atoms: _117  and  _118
REMARK   53  A    between atoms: _122  and  _124
REMARK   54  A    between atoms: _124  and  _125
REMARK   55  A    between atoms: _124  and  _127
REMARK   56  A    between atoms: _127  and  _128
REMARK   57  A    between atoms: _128  and  _129
REMARK   58  A    between atoms: _131  and  _133
REMARK   59  A    between atoms: _133  and  _134
REMARK   60  A    between atoms: _133  and  _136
REMARK   61  A    between atoms: _136  and  _137
REMARK   62  A    between atoms: _140  and  _142
REMARK   63  A    between atoms: _142  and  _143
REMARK   64  A    between atoms: _145  and  _147
REMARK   65  A    between atoms: _147  and  _148
REMARK   66  A    between atoms: _150  and  _152
REMARK   67  A    between atoms: _152  and  _153
REMARK   68  A    between atoms: _152  and  _155
REMARK   69  A    between atoms: _155  and  _156
REMARK   70  A    between atoms: _159  and  _161
REMARK   71  A    between atoms: _161  and  _162
REMARK   72  A    between atoms: _164  and  _166
REMARK   73  A    between atoms: _166  and  _167
REMARK   74  A    between atoms: _169  and  _171
REMARK   75  A    between atoms: _171  and  _172
REMARK   76  A    between atoms: _171  and  _174
REMARK   77  A    between atoms: _174  and  _175
REMARK   78  A    between atoms: _181  and  _183
REMARK   79  A    between atoms: _183  and  _184
REMARK   80  A    between atoms: _183  and  _186
REMARK   81  A    between atoms: _186  and  _187
REMARK   82  A    between atoms: _190  and  _192
REMARK   83  A    between atoms: _192  and  _193
REMARK   84  A    between atoms: _192  and  _195
REMARK   85  A    between atoms: _195  and  _196
REMARK   86  A    between atoms: _199  and  _201
REMARK   87  A    between atoms: _201  and  _202
REMARK   88  A    between atoms: _201  and  _204
REMARK   89  A    between atoms: _204  and  _205
REMARK   90  A    between atoms: _209  and  _210
REMARK   91  A    between atoms: _215  and  _217
REMARK   92  A    between atoms: _217  and  _218
REMARK   93  A    between atoms: _217  and  _220
REMARK   94  A    between atoms: _223  and  _225
REMARK   95  A    between atoms: _225  and  _226
REMARK   96  A    between atoms: _225  and  _228
REMARK   97  A    between atoms: _228  and  _229
REMARK   98  A    between atoms: _234  and  _236
REMARK   99  A    between atoms: _236  and  _237
REMARK  100  A    between atoms: _236  and  _239
REMARK  101  A    between atoms: _239  and  _240
REMARK  102  A    between atoms: _243  and  _245
REMARK  103  A    between atoms: _245  and  _246
REMARK  104  A    between atoms: _245  and  _248
REMARK  105  A    between atoms: _248  and  _249
REMARK  106  A    between atoms: _252  and  _254
REMARK  107  A    between atoms: _254  and  _255
REMARK  108  A    between atoms: _257  and  _259
REMARK  109  A    between atoms: _259  and  _260
REMARK  110  A    between atoms: _259  and  _262
REMARK  111  A    between atoms: _262  and  _263
REMARK  112  A    between atoms: _263  and  _264
REMARK  113  A    between atoms: _264  and  _265
REMARK  114  A    between atoms: _274  and  _276
REMARK  115  A    between atoms: _276  and  _277
REMARK  116  A    between atoms: _276  and  _279
REMARK  117  A    between atoms: _279  and  _280
REMARK  118  A    between atoms: _280  and  _281
REMARK  119  A    between atoms: _281  and  _282
REMARK  120  A    between atoms: _291  and  _293
REMARK  121  A    between atoms: _293  and  _294
REMARK  122  A    between atoms: _293  and  _296
REMARK  123  A    between atoms: _296  and  _297
REMARK  124  A    between atoms: _300  and  _302
REMARK  125  A    between atoms: _302  and  _303
REMARK  126  A    between atoms: _302  and  _305
REMARK  127  A    between atoms: _305  and  _306
REMARK  128  A    between atoms: _309  and  _311
REMARK  129  A    between atoms: _311  and  _312
REMARK  130  A    between atoms: _311  and  _314
REMARK  131  A    between atoms: _314  and  _315
REMARK  132  A    between atoms: _318  and  _320
REMARK  133  A    between atoms: _320  and  _321
REMARK  134  A    between atoms: _320  and  _323
REMARK  135  A    between atoms: _323  and  _324
REMARK  136  A    between atoms: _327  and  _329
REMARK  137  A    between atoms: _329  and  _330
REMARK  138  A    between atoms: _329  and  _332
REMARK  139  A    between atoms: _332  and  _333
REMARK  140  A    between atoms: _336  and  _338
REMARK  141  A    between atoms: _338  and  _339
REMARK  142  A    between atoms: _341  and  _343
REMARK  143  A    between atoms: _343  and  _344
REMARK  144  A    between atoms: _347  and  _349
REMARK  145  A    between atoms: _349  and  _350
REMARK  146  A    between atoms: _349  and  _352
REMARK  147  A    between atoms: _352  and  _353
REMARK  148  A    between atoms: _356  and  _358
REMARK  149  A    between atoms: _358  and  _359
REMARK  150  A    between atoms: _358  and  _361
REMARK  151  A    between atoms: _361  and  _362
REMARK  152  A    between atoms: _365  and  _367
REMARK  153  A    between atoms: _367  and  _368
REMARK  154  A    between atoms: _367  and  _370
REMARK  155  A    between atoms: _370  and  _371
REMARK  156  A    between atoms: _374  and  _376
REMARK  157  A    between atoms: _376  and  _377
REMARK  158  A    between atoms: _376  and  _379
REMARK  159  A    between atoms: _382  and  _384
REMARK  160  A    between atoms: _384  and  _385
REMARK  161  A    between atoms: _384  and  _387
REMARK  162  A    between atoms: _387  and  _388
REMARK  163  A    between atoms: _388  and  _389
REMARK  164  A    between atoms: _389  and  _390
REMARK  165  A    between atoms: _390  and  _391
REMARK  166  A    between atoms: _395  and  _397
REMARK  167  A    between atoms: _397  and  _398
REMARK  168  A    between atoms: _397  and  _400
REMARK  169  A    between atoms: _400  and  _401
REMARK  170  A    between atoms: _401  and  _402
REMARK  171  A    between atoms: _404  and  _406
REMARK  172  A    between atoms: _406  and  _407
REMARK  173  A    between atoms: _406  and  _409
REMARK  174  A    between atoms: _409  and  _410
REMARK  175  A    between atoms: _413  and  _415
REMARK  176  A    between atoms: _415  and  _416
REMARK  177  A    between atoms: _418  and  _420
REMARK  178  A    between atoms: _420  and  _421
REMARK  179  A    between atoms: _423  and  _425
REMARK  180  A    between atoms: _425  and  _426
REMARK  181  A    between atoms: _425  and  _428
REMARK  182  A    between atoms: _428  and  _429
REMARK  183  A    between atoms: _432  and  _434
REMARK  184  A    between atoms: _434  and  _435
REMARK  185  A    between atoms: _437  and  _439
REMARK  186  A    between atoms: _439  and  _440
REMARK  187  A    between atoms: _442  and  _444
REMARK  188  A    between atoms: _444  and  _445
REMARK  189  A    between atoms: _444  and  _447
REMARK  190  A    between atoms: _447  and  _448
REMARK  191  A    between atoms: _454  and  _456
REMARK  192  A    between atoms: _456  and  _457
REMARK  193  A    between atoms: _456  and  _459
REMARK  194  A    between atoms: _459  and  _460
REMARK  195  A    between atoms: _463  and  _465
REMARK  196  A    between atoms: _465  and  _466
REMARK  197  A    between atoms: _465  and  _468
REMARK  198  A    between atoms: _471  and  _473
REMARK  199  A    between atoms: _473  and  _474
REMARK  200  A    between atoms: _473  and  _476
REMARK  201  A    between atoms: _476  and  _477
REMARK  202  A    between atoms: _480  and  _482
REMARK  203  A    between atoms: _482  and  _483
REMARK  204  A    between atoms: _482  and  _485
REMARK  205  A    between atoms: _485  and  _486
REMARK  206  A    between atoms: _490  and  _491
REMARK  207  A    between atoms: _496  and  _498
REMARK  208  A    between atoms: _498  and  _499
REMARK  209  A    between atoms: _498  and  _501
REMARK  210  A    between atoms: _504  and  _506
REMARK  211  A    between atoms: _506  and  _507
REMARK  212  A    between atoms: _506  and  _509
REMARK  213  A    between atoms: _509  and  _510
REMARK  214  A    between atoms: _515  and  _517
REMARK  215  A    between atoms: _517  and  _518
REMARK  216  A    between atoms: _517  and  _520
REMARK  217  A    between atoms: _520  and  _521
REMARK  218  A    between atoms: _524  and  _526
REMARK  219  A    between atoms: _526  and  _527
REMARK  220  A    between atoms: _526  and  _529
REMARK  221  A    between atoms: _529  and  _530
REMARK  222  A    between atoms: _533  and  _535
REMARK  223  A    between atoms: _535  and  _536
REMARK  224  A    between atoms: _538  and  _540
REMARK  225  A    between atoms: _540  and  _541
REMARK  226  A    between atoms: _540  and  _543
REMARK  227  A    between atoms: _543  and  _544
REMARK  228  A    between atoms: _544  and  _545
REMARK  229  A    between atoms: _545  and  _546
REMARK  230  A    between atoms: _555  and  _557
REMARK  231  A    between atoms: _557  and  _558
REMARK  232  A    between atoms: _557  and  _560
REMARK  233  A    between atoms: _560  and  _561
REMARK                            x       y       z     vdW  Elec       q    Type
REMARK                         _______ _______ _______ _____ _____    ______ ____
ROOT
ATOM      1  O   HOH     1       7.745  23.703  18.243  0.00  0.00    +0.000 OA
ENDROOT
TORSDOF 0
REMARK  Name = ../refined-set-2016/1mrw/1mrw_pocket.pdb
REMARK  233 active torsions:
REMARK  status: ('A' for Active; 'I' for Inactive)
REMARK    1  A    between atoms: _1  and  _3
REMARK    2  A    between atoms: _3  and  _4
REMARK    3  A    between atoms: _3  and  _6
REMARK    4  A    between atoms: _6  and  _7
REMARK    5  A    between atoms: _7  and  _8
REMARK    6  A    between atoms: _8  and  _9
REMARK    7  A    between atoms: _18  and  _20
REMARK    8  A    between atoms: _20  and  _21
REMARK    9  A    between atoms: _20  and  _23
REMARK   10  A    between atoms: _23  and  _24
REMARK   11  A    between atoms: _27  and  _29
REMARK   12  A    between atoms: _29  and  _30
REMARK   13  A    between atoms: _29  and  _32
REMARK   14  A    between atoms: _32  and  _33
REMARK   15  A    between atoms: _36  and  _38
REMARK   16  A    between atoms: _38  and  _39
REMARK   17  A    between atoms: _38  and  _41
REMARK   18  A    between atoms: _41  and  _42
REMARK   19  A    between atoms: _45  and  _47
REMARK   20  A    between atoms: _47  and  _48
REMARK   21  A    between atoms: _47  and  _50
REMARK   22  A    between atoms: _50  and  _51
REMARK   23  A    between atoms: _54  and  _56
REMARK   24  A    between atoms: _56  and  _57
REMARK   25  A    between atoms: _56  and  _59
REMARK   26  A    between atoms: _59  and  _60
REMARK   27  A    between atoms: _63  and  _65
REMARK   28  A    between atoms: _65  and  _66
REMARK   29  A    between atoms: _68  and  _70
REMARK   30  A    between atoms: _70  and  _71
REMARK   31  A    between atoms: _74  and  _76
REMARK   32  A    between atoms: _76  and  _77
REMARK   33  A    between atoms: _76  and  _79
REMARK   34  A    between atoms: _79  and  _80
REMARK   35  A    between atoms: _83  and  _85
REMARK   36  A    between atoms: _85  and  _86
REMARK   37  A    between atoms: _85  and  _88
REMARK   38  A    between atoms: _88  and  _89
REMARK   39  A    between atoms: _92  and  _94
REMARK   40  A    between atoms: _94  and  _95
REMARK   41  A    between atoms: _94  and  _97
REMARK   42  A    between atoms: _97  and  _98
REMARK   43  A    between atoms: _101  and  _103
REMARK   44  A    between atoms: _103  and  _104
REMARK   45  A    between atoms: _103  and  _106
REMARK   46  A    between atoms: _109  and  _111
REMARK   47  A    between atoms: _111  and  _112
REMARK   48  A    between atoms: _111  and  _114
REMARK   49  A    between atoms: _114  and  _115
REMARK   50  A    between atoms: _115  and  _116
REMARK   51  A    between atoms: _116  and  _117
REMARK   52  A    between atoms: _117  and  _118
REMARK   53  A    between atoms: _122  and  _124
REMARK   54  A    between atoms: _124  and  _125
REMARK   55  A    between atoms: _124  and  _127
REMARK   56  A    between atoms: _127  and  _128
REMARK   57  A    between atoms: _128  and  _129
REMARK   58  A    between atoms: _131  and  _133
REMARK   59  A    between atoms: _133  and  _134
REMARK   60  A    between atoms: _133  and  _136
REMARK   61  A    between atoms: _136  and  _137
REMARK   62  A    between atoms: _140  and  _142
REMARK   63  A    between atoms: _142  and  _143
REMARK   64  A    between atoms: _145  and  _147
REMARK   65  A    between atoms: _147  and  _148
REMARK   66  A    between atoms: _150  and  _152
REMARK   67  A    between atoms: _152  and  _153
REMARK   68  A    between atoms: _152  and  _155
REMARK   69  A    between atoms: _155  and  _156
REMARK   70  A    between atoms: _159  and  _161
REMARK   71  A    between atoms: _161  and  _162
REMARK   72  A    between atoms: _164  and  _166
REMARK   73  A    between atoms: _166  and  _167
REMARK   74  A    between atoms: _169  and  _171
REMARK   75  A    between atoms: _171  and  _172
REMARK   76  A    between atoms: _171  and  _174
REMARK   77  A    between atoms: _174  and  _175
REMARK   78  A    between atoms: _181  and  _183
REMARK   79  A    between atoms: _183  and  _184
REMARK   80  A    between atoms: _183  and  _186
REMARK   81  A    between atoms: _186  and  _187
REMARK   82  A    between atoms: _190  and  _192
REMARK   83  A    between atoms: _192  and  _193
REMARK   84  A    between atoms: _192  and  _195
REMARK   85  A    between atoms: _195  and  _196
REMARK   86  A    between atoms: _199  and  _201
REMARK   87  A    between atoms: _201  and  _202
REMARK   88  A    between atoms: _201  and  _204
REMARK   89  A    between atoms: _204  and  _205
REMARK   90  A    between atoms: _209  and  _210
REMARK   91  A    between atoms: _215  and  _217
REMARK   92  A    between atoms: _217  and  _218
REMARK   93  A    between atoms: _217  and  _220
REMARK   94  A    between atoms: _223  and  _225
REMARK   95  A    between atoms: _225  and  _226
REMARK   96  A    between atoms: _225  and  _228
REMARK   97  A    between atoms: _228  and  _229
REMARK   98  A    between atoms: _234  and  _236
REMARK   99  A    between atoms: _236  and  _237
REMARK  100  A    between atoms: _236  and  _239
REMARK  101  A    between atoms: _239  and  _240
REMARK  102  A    between atoms: _243  and  _245
REMARK  103  A    between atoms: _245  and  _246
REMARK  104  A    between atoms: _245  and  _248
REMARK  105  A    between atoms: _248  and  _249
REMARK  106  A    between atoms: _252  and  _254
REMARK  107  A    between atoms: _254  and  _255
REMARK  108  A    between atoms: _257  and  _259
REMARK  109  A    between atoms: _259  and  _260
REMARK  110  A    between atoms: _259  and  _262
REMARK  111  A    between atoms: _262  and  _263
REMARK  112  A    between atoms: _263  and  _264
REMARK  113  A    between atoms: _264  and  _265
REMARK  114  A    between atoms: _274  and  _276
REMARK  115  A    between atoms: _276  and  _277
REMARK  116  A    between atoms: _276  and  _279
REMARK  117  A    between atoms: _279  and  _280
REMARK  118  A    between atoms: _280  and  _281
REMARK  119  A    between atoms: _281  and  _282
REMARK  120  A    between atoms: _291  and  _293
REMARK  121  A    between atoms: _293  and  _294
REMARK  122  A    between atoms: _293  and  _296
REMARK  123  A    between atoms: _296  and  _297
REMARK  124  A    between atoms: _300  and  _302
REMARK  125  A    between atoms: _302  and  _303
REMARK  126  A    between atoms: _302  and  _305
REMARK  127  A    between atoms: _305  and  _306
REMARK  128  A    between atoms: _309  and  _311
REMARK  129  A    between atoms: _311  and  _312
REMARK  130  A    between atoms: _311  and  _314
REMARK  131  A    between atoms: _314  and  _315
REMARK  132  A    between atoms: _318  and  _320
REMARK  133  A    between atoms: _320  and  _321
REMARK  134  A    between atoms: _320  and  _323
REMARK  135  A    between atoms: _323  and  _324
REMARK  136  A    between atoms: _327  and  _329
REMARK  137  A    between atoms: _329  and  _330
REMARK  138  A    between atoms: _329  and  _332
REMARK  139  A    between atoms: _332  and  _333
REMARK  140  A    between atoms: _336  and  _338
REMARK  141  A    between atoms: _338  and  _339
REMARK  142  A    between atoms: _341  and  _343
REMARK  143  A    between atoms: _343  and  _344
REMARK  144  A    between atoms: _347  and  _349
REMARK  145  A    between atoms: _349  and  _350
REMARK  146  A    between atoms: _349  and  _352
REMARK  147  A    between atoms: _352  and  _353
REMARK  148  A    between atoms: _356  and  _358
REMARK  149  A    between atoms: _358  and  _359
REMARK  150  A    between atoms: _358  and  _361
REMARK  151  A    between atoms: _361  and  _362
REMARK  152  A    between atoms: _365  and  _367
REMARK  153  A    between atoms: _367  and  _368
REMARK  154  A    between atoms: _367  and  _370
REMARK  155  A    between atoms: _370  and  _371
REMARK  156  A    between atoms: _374  and  _376
REMARK  157  A    between atoms: _376  and  _377
REMARK  158  A    between atoms: _376  and  _379
REMARK  159  A    between atoms: _382  and  _384
REMARK  160  A    between atoms: _384  and  _385
REMARK  161  A    between atoms: _384  and  _387
REMARK  162  A    between atoms: _387  and  _388
REMARK  163  A    between atoms: _388  and  _389
REMARK  164  A    between atoms: _389  and  _390
REMARK  165  A    between atoms: _390  and  _391
REMARK  166  A    between atoms: _395  and  _397
REMARK  167  A    between atoms: _397  and  _398
REMARK  168  A    between atoms: _397  and  _400
REMARK  169  A    between atoms: _400  and  _401
REMARK  170  A    between atoms: _401  and  _402
REMARK  171  A    between atoms: _404  and  _406
REMARK  172  A    between atoms: _406  and  _407
REMARK  173  A    between atoms: _406  and  _409
REMARK  174  A    between atoms: _409  and  _410
REMARK  175  A    between atoms: _413  and  _415
REMARK  176  A    between atoms: _415  and  _416
REMARK  177  A    between atoms: _418  and  _420
REMARK  178  A    between atoms: _420  and  _421
REMARK  179  A    between atoms: _423  and  _425
REMARK  180  A    between atoms: _425  and  _426
REMARK  181  A    between atoms: _425  and  _428
REMARK  182  A    between atoms: _428  and  _429
REMARK  183  A    between atoms: _432  and  _434
REMARK  184  A    between atoms: _434  and  _435
REMARK  185  A    between atoms: _437  and  _439
REMARK  186  A    between atoms: _439  and  _440
REMARK  187  A    between atoms: _442  and  _444
REMARK  188  A    between atoms: _444  and  _445
REMARK  189  A    between atoms: _444  and  _447
REMARK  190  A    between atoms: _447  and  _448
REMARK  191  A    between atoms: _454  and  _456
REMARK  192  A    between atoms: _456  and  _457
REMARK  193  A    between atoms: _456  and  _459
REMARK  194  A    between atoms: _459  and  _460
REMARK  195  A    between atoms: _463  and  _465
REMARK  196  A    between atoms: _465  and  _466
REMARK  197  A    between atoms: _465  and  _468
REMARK  198  A    between atoms: _471  and  _473
REMARK  199  A    between atoms: _473  and  _474
REMARK  200  A    between atoms: _473  and  _476
REMARK  201  A    between atoms: _476  and  _477
REMARK  202  A    between atoms: _480  and  _482
REMARK  203  A    between atoms: _482  and  _483
REMARK  204  A    between atoms: _482  and  _485
REMARK  205  A    between atoms: _485  and  _486
REMARK  206  A    between atoms: _490  and  _491
REMARK  207  A    between atoms: _496  and  _498
REMARK  208  A    between atoms: _498  and  _499
REMARK  209  A    between atoms: _498  and  _501
REMARK  210  A    between atoms: _504  and  _506
REMARK  211  A    between atoms: _506  and  _507
REMARK  212  A    between atoms: _506  and  _509
REMARK  213  A    between atoms: _509  and  _510
REMARK  214  A    between atoms: _515  and  _517
REMARK  215  A    between atoms: _517  and  _518
REMARK  216  A    between atoms: _517  and  _520
REMARK  217  A    between atoms: _520  and  _521
REMARK  218  A    between atoms: _524  and  _526
REMARK  219  A    between atoms: _526  and  _527
REMARK  220  A    between atoms: _526  and  _529
REMARK  221  A    between atoms: _529  and  _530
REMARK  222  A    between atoms: _533  and  _535
REMARK  223  A    between atoms: _535  and  _536
REMARK  224  A    between atoms: _538  and  _540
REMARK  225  A    between atoms: _540  and  _541
REMARK  226  A    between atoms: _540  and  _543
REMARK  227  A    between atoms: _543  and  _544
REMARK  228  A    between atoms: _544  and  _545
REMARK  229  A    between atoms: _545  and  _546
REMARK  230  A    between atoms: _555  and  _557
REMARK  231  A    between atoms: _557  and  _558
REMARK  232  A    between atoms: _557  and  _560
REMARK  233  A    between atoms: _560  and  _561
REMARK                            x       y       z     vdW  Elec       q    Type
REMARK                         _______ _______ _______ _____ _____    ______ ____
ROOT
ATOM      1  O   HOH     1       9.222  16.110  27.188  0.00  0.00    +0.000 OA
ENDROOT
TORSDOF 0
REMARK  Name = ../refined-set-2016/1mrw/1mrw_pocket.pdb
REMARK  233 active torsions:
REMARK  status: ('A' for Active; 'I' for Inactive)
REMARK    1  A    between atoms: _1  and  _3
REMARK    2  A    between atoms: _3  and  _4
REMARK    3  A    between atoms: _3  and  _6
REMARK    4  A    between atoms: _6  and  _7
REMARK    5  A    between atoms: _7  and  _8
REMARK    6  A    between atoms: _8  and  _9
REMARK    7  A    between atoms: _18  and  _20
REMARK    8  A    between atoms: _20  and  _21
REMARK    9  A    between atoms: _20  and  _23
REMARK   10  A    between atoms: _23  and  _24
REMARK   11  A    between atoms: _27  and  _29
REMARK   12  A    between atoms: _29  and  _30
REMARK   13  A    between atoms: _29  and  _32
REMARK   14  A    between atoms: _32  and  _33
REMARK   15  A    between atoms: _36  and  _38
REMARK   16  A    between atoms: _38  and  _39
REMARK   17  A    between atoms: _38  and  _41
REMARK   18  A    between atoms: _41  and  _42
REMARK   19  A    between atoms: _45  and  _47
REMARK   20  A    between atoms: _47  and  _48
REMARK   21  A    between atoms: _47  and  _50
REMARK   22  A    between atoms: _50  and  _51
REMARK   23  A    between atoms: _54  and  _56
REMARK   24  A    between atoms: _56  and  _57
REMARK   25  A    between atoms: _56  and  _59
REMARK   26  A    between atoms: _59  and  _60
REMARK   27  A    between atoms: _63  and  _65
REMARK   28  A    between atoms: _65  and  _66
REMARK   29  A    between atoms: _68  and  _70
REMARK   30  A    between atoms: _70  and  _71
REMARK   31  A    between atoms: _74  and  _76
REMARK   32  A    between atoms: _76  and  _77
REMARK   33  A    between atoms: _76  and  _79
REMARK   34  A    between atoms: _79  and  _80
REMARK   35  A    between atoms: _83  and  _85
REMARK   36  A    between atoms: _85  and  _86
REMARK   37  A    between atoms: _85  and  _88
REMARK   38  A    between atoms: _88  and  _89
REMARK   39  A    between atoms: _92  and  _94
REMARK   40  A    between atoms: _94  and  _95
REMARK   41  A    between atoms: _94  and  _97
REMARK   42  A    between atoms: _97  and  _98
REMARK   43  A    between atoms: _101  and  _103
REMARK   44  A    between atoms: _103  and  _104
REMARK   45  A    between atoms: _103  and  _106
REMARK   46  A    between atoms: _109  and  _111
REMARK   47  A    between atoms: _111  and  _112
REMARK   48  A    between atoms: _111  and  _114
REMARK   49  A    between atoms: _114  and  _115
REMARK   50  A    between atoms: _115  and  _116
REMARK   51  A    between atoms: _116  and  _117
REMARK   52  A    between atoms: _117  and  _118
REMARK   53  A    between atoms: _122  and  _124
REMARK   54  A    between atoms: _124  and  _125
REMARK   55  A    between atoms: _124  and  _127
REMARK   56  A    between atoms: _127  and  _128
REMARK   57  A    between atoms: _128  and  _129
REMARK   58  A    between atoms: _131  and  _133
REMARK   59  A    between atoms: _133  and  _134
REMARK   60  A    between atoms: _133  and  _136
REMARK   61  A    between atoms: _136  and  _137
REMARK   62  A    between atoms: _140  and  _142
REMARK   63  A    between atoms: _142  and  _143
REMARK   64  A    between atoms: _145  and  _147
REMARK   65  A    between atoms: _147  and  _148
REMARK   66  A    between atoms: _150  and  _152
REMARK   67  A    between atoms: _152  and  _153
REMARK   68  A    between atoms: _152  and  _155
REMARK   69  A    between atoms: _155  and  _156
REMARK   70  A    between atoms: _159  and  _161
REMARK   71  A    between atoms: _161  and  _162
REMARK   72  A    between atoms: _164  and  _166
REMARK   73  A    between atoms: _166  and  _167
REMARK   74  A    between atoms: _169  and  _171
REMARK   75  A    between atoms: _171  and  _172
REMARK   76  A    between atoms: _171  and  _174
REMARK   77  A    between atoms: _174  and  _175
REMARK   78  A    between atoms: _181  and  _183
REMARK   79  A    between atoms: _183  and  _184
REMARK   80  A    between atoms: _183  and  _186
REMARK   81  A    between atoms: _186  and  _187
REMARK   82  A    between atoms: _190  and  _192
REMARK   83  A    between atoms: _192  and  _193
REMARK   84  A    between atoms: _192  and  _195
REMARK   85  A    between atoms: _195  and  _196
REMARK   86  A    between atoms: _199  and  _201
REMARK   87  A    between atoms: _201  and  _202
REMARK   88  A    between atoms: _201  and  _204
REMARK   89  A    between atoms: _204  and  _205
REMARK   90  A    between atoms: _209  and  _210
REMARK   91  A    between atoms: _215  and  _217
REMARK   92  A    between atoms: _217  and  _218
REMARK   93  A    between atoms: _217  and  _220
REMARK   94  A    between atoms: _223  and  _225
REMARK   95  A    between atoms: _225  and  _226
REMARK   96  A    between atoms: _225  and  _228
REMARK   97  A    between atoms: _228  and  _229
REMARK   98  A    between atoms: _234  and  _236
REMARK   99  A    between atoms: _236  and  _237
REMARK  100  A    between atoms: _236  and  _239
REMARK  101  A    between atoms: _239  and  _240
REMARK  102  A    between atoms: _243  and  _245
REMARK  103  A    between atoms: _245  and  _246
REMARK  104  A    between atoms: _245  and  _248
REMARK  105  A    between atoms: _248  and  _249
REMARK  106  A    between atoms: _252  and  _254
REMARK  107  A    between atoms: _254  and  _255
REMARK  108  A    between atoms: _257  and  _259
REMARK  109  A    between atoms: _259  and  _260
REMARK  110  A    between atoms: _259  and  _262
REMARK  111  A    between atoms: _262  and  _263
REMARK  112  A    between atoms: _263  and  _264
REMARK  113  A    between atoms: _264  and  _265
REMARK  114  A    between atoms: _274  and  _276
REMARK  115  A    between atoms: _276  and  _277
REMARK  116  A    between atoms: _276  and  _279
REMARK  117  A    between atoms: _279  and  _280
REMARK  118  A    between atoms: _280  and  _281
REMARK  119  A    between atoms: _281  and  _282
REMARK  120  A    between atoms: _291  and  _293
REMARK  121  A    between atoms: _293  and  _294
REMARK  122  A    between atoms: _293  and  _296
REMARK  123  A    between atoms: _296  and  _297
REMARK  124  A    between atoms: _300  and  _302
REMARK  125  A    between atoms: _302  and  _303
REMARK  126  A    between atoms: _302  and  _305
REMARK  127  A    between atoms: _305  and  _306
REMARK  128  A    between atoms: _309  and  _311
REMARK  129  A    between atoms: _311  and  _312
REMARK  130  A    between atoms: _311  and  _314
REMARK  131  A    between atoms: _314  and  _315
REMARK  132  A    between atoms: _318  and  _320
REMARK  133  A    between atoms: _320  and  _321
REMARK  134  A    between atoms: _320  and  _323
REMARK  135  A    between atoms: _323  and  _324
REMARK  136  A    between atoms: _327  and  _329
REMARK  137  A    between atoms: _329  and  _330
REMARK  138  A    between atoms: _329  and  _332
REMARK  139  A    between atoms: _332  and  _333
REMARK  140  A    between atoms: _336  and  _338
REMARK  141  A    between atoms: _338  and  _339
REMARK  142  A    between atoms: _341  and  _343
REMARK  143  A    between atoms: _343  and  _344
REMARK  144  A    between atoms: _347  and  _349
REMARK  145  A    between atoms: _349  and  _350
REMARK  146  A    between atoms: _349  and  _352
REMARK  147  A    between atoms: _352  and  _353
REMARK  148  A    between atoms: _356  and  _358
REMARK  149  A    between atoms: _358  and  _359
REMARK  150  A    between atoms: _358  and  _361
REMARK  151  A    between atoms: _361  and  _362
REMARK  152  A    between atoms: _365  and  _367
REMARK  153  A    between atoms: _367  and  _368
REMARK  154  A    between atoms: _367  and  _370
REMARK  155  A    between atoms: _370  and  _371
REMARK  156  A    between atoms: _374  and  _376
REMARK  157  A    between atoms: _376  and  _377
REMARK  158  A    between atoms: _376  and  _379
REMARK  159  A    between atoms: _382  and  _384
REMARK  160  A    between atoms: _384  and  _385
REMARK  161  A    between atoms: _384  and  _387
REMARK  162  A    between atoms: _387  and  _388
REMARK  163  A    between atoms: _388  and  _389
REMARK  164  A    between atoms: _389  and  _390
REMARK  165  A    between atoms: _390  and  _391
REMARK  166  A    between atoms: _395  and  _397
REMARK  167  A    between atoms: _397  and  _398
REMARK  168  A    between atoms: _397  and  _400
REMARK  169  A    between atoms: _400  and  _401
REMARK  170  A    between atoms: _401  and  _402
REMARK  171  A    between atoms: _404  and  _406
REMARK  172  A    between atoms: _406  and  _407
REMARK  173  A    between atoms: _406  and  _409
REMARK  174  A    between atoms: _409  and  _410
REMARK  175  A    between atoms: _413  and  _415
REMARK  176  A    between atoms: _415  and  _416
REMARK  177  A    between atoms: _418  and  _420
REMARK  178  A    between atoms: _420  and  _421
REMARK  179  A    between atoms: _423  and  _425
REMARK  180  A    between atoms: _425  and  _426
REMARK  181  A    between atoms: _425  and  _428
REMARK  182  A    between atoms: _428  and  _429
REMARK  183  A    between atoms: _432  and  _434
REMARK  184  A    between atoms: _434  and  _435
REMARK  185  A    between atoms: _437  and  _439
REMARK  186  A    between atoms: _439  and  _440
REMARK  187  A    between atoms: _442  and  _444
REMARK  188  A    between atoms: _444  and  _445
REMARK  189  A    between atoms: _444  and  _447
REMARK  190  A    between atoms: _447  and  _448
REMARK  191  A    between atoms: _454  and  _456
REMARK  192  A    between atoms: _456  and  _457
REMARK  193  A    between atoms: _456  and  _459
REMARK  194  A    between atoms: _459  and  _460
REMARK  195  A    between atoms: _463  and  _465
REMARK  196  A    between atoms: _465  and  _466
REMARK  197  A    between atoms: _465  and  _468
REMARK  198  A    between atoms: _471  and  _473
REMARK  199  A    between atoms: _473  and  _474
REMARK  200  A    between atoms: _473  and  _476
REMARK  201  A    between atoms: _476  and  _477
REMARK  202  A    between atoms: _480  and  _482
REMARK  203  A    between atoms: _482  and  _483
REMARK  204  A    between atoms: _482  and  _485
REMARK  205  A    between atoms: _485  and  _486
REMARK  206  A    between atoms: _490  and  _491
REMARK  207  A    between atoms: _496  and  _498
REMARK  208  A    between atoms: _498  and  _499
REMARK  209  A    between atoms: _498  and  _501
REMARK  210  A    between atoms: _504  and  _506
REMARK  211  A    between atoms: _506  and  _507
REMARK  212  A    between atoms: _506  and  _509
REMARK  213  A    between atoms: _509  and  _510
REMARK  214  A    between atoms: _515  and  _517
REMARK  215  A    between atoms: _517  and  _518
REMARK  216  A    between atoms: _517  and  _520
REMARK  217  A    between atoms: _520  and  _521
REMARK  218  A    between atoms: _524  and  _526
REMARK  219  A    between atoms: _526  and  _527
REMARK  220  A    between atoms: _526  and  _529
REMARK  221  A    between atoms: _529  and  _530
REMARK  222  A    between atoms: _533  and  _535
REMARK  223  A    between atoms: _535  and  _536
REMARK  224  A    between atoms: _538  and  _540
REMARK  225  A    between atoms: _540  and  _541
REMARK  226  A    between atoms: _540  and  _543
REMARK  227  A    between atoms: _543  and  _544
REMARK  228  A    between atoms: _544  and  _545
REMARK  229  A    between atoms: _545  and  _546
REMARK  230  A    between atoms: _555  and  _557
REMARK  231  A    between atoms: _557  and  _558
REMARK  232  A    between atoms: _557  and  _560
REMARK  233  A    between atoms: _560  and  _561
REMARK                            x       y       z     vdW  Elec       q    Type
REMARK                         _______ _______ _______ _____ _____    ______ ____
ROOT
ATOM      1  O   HOH     1      10.652  14.898  16.729  0.00  0.00    +0.000 OA
ENDROOT
TORSDOF 0
REMARK  Name = ../refined-set-2016/1mrw/1mrw_pocket.pdb
REMARK  233 active torsions:
REMARK  status: ('A' for Active; 'I' for Inactive)
REMARK    1  A    between atoms: _1  and  _3
REMARK    2  A    between atoms: _3  and  _4
REMARK    3  A    between atoms: _3  and  _6
REMARK    4  A    between atoms: _6  and  _7
REMARK    5  A    between atoms: _7  and  _8
REMARK    6  A    between atoms: _8  and  _9
REMARK    7  A    between atoms: _18  and  _20
REMARK    8  A    between atoms: _20  and  _21
REMARK    9  A    between atoms: _20  and  _23
REMARK   10  A    between atoms: _23  and  _24
REMARK   11  A    between atoms: _27  and  _29
REMARK   12  A    between atoms: _29  and  _30
REMARK   13  A    between atoms: _29  and  _32
REMARK   14  A    between atoms: _32  and  _33
REMARK   15  A    between atoms: _36  and  _38
REMARK   16  A    between atoms: _38  and  _39
REMARK   17  A    between atoms: _38  and  _41
REMARK   18  A    between atoms: _41  and  _42
REMARK   19  A    between atoms: _45  and  _47
REMARK   20  A    between atoms: _47  and  _48
REMARK   21  A    between atoms: _47  and  _50
REMARK   22  A    between atoms: _50  and  _51
REMARK   23  A    between atoms: _54  and  _56
REMARK   24  A    between atoms: _56  and  _57
REMARK   25  A    between atoms: _56  and  _59
REMARK   26  A    between atoms: _59  and  _60
REMARK   27  A    between atoms: _63  and  _65
REMARK   28  A    between atoms: _65  and  _66
REMARK   29  A    between atoms: _68  and  _70
REMARK   30  A    between atoms: _70  and  _71
REMARK   31  A    between atoms: _74  and  _76
REMARK   32  A    between atoms: _76  and  _77
REMARK   33  A    between atoms: _76  and  _79
REMARK   34  A    between atoms: _79  and  _80
REMARK   35  A    between atoms: _83  and  _85
REMARK   36  A    between atoms: _85  and  _86
REMARK   37  A    between atoms: _85  and  _88
REMARK   38  A    between atoms: _88  and  _89
REMARK   39  A    between atoms: _92  and  _94
REMARK   40  A    between atoms: _94  and  _95
REMARK   41  A    between atoms: _94  and  _97
REMARK   42  A    between atoms: _97  and  _98
REMARK   43  A    between atoms: _101  and  _103
REMARK   44  A    between atoms: _103  and  _104
REMARK   45  A    between atoms: _103  and  _106
REMARK   46  A    between atoms: _109  and  _111
REMARK   47  A    between atoms: _111  and  _112
REMARK   48  A    between atoms: _111  and  _114
REMARK   49  A    between atoms: _114  and  _115
REMARK   50  A    between atoms: _115  and  _116
REMARK   51  A    between atoms: _116  and  _117
REMARK   52  A    between atoms: _117  and  _118
REMARK   53  A    between atoms: _122  and  _124
REMARK   54  A    between atoms: _124  and  _125
REMARK   55  A    between atoms: _124  and  _127
REMARK   56  A    between atoms: _127  and  _128
REMARK   57  A    between atoms: _128  and  _129
REMARK   58  A    between atoms: _131  and  _133
REMARK   59  A    between atoms: _133  and  _134
REMARK   60  A    between atoms: _133  and  _136
REMARK   61  A    between atoms: _136  and  _137
REMARK   62  A    between atoms: _140  and  _142
REMARK   63  A    between atoms: _142  and  _143
REMARK   64  A    between atoms: _145  and  _147
REMARK   65  A    between atoms: _147  and  _148
REMARK   66  A    between atoms: _150  and  _152
REMARK   67  A    between atoms: _152  and  _153
REMARK   68  A    between atoms: _152  and  _155
REMARK   69  A    between atoms: _155  and  _156
REMARK   70  A    between atoms: _159  and  _161
REMARK   71  A    between atoms: _161  and  _162
REMARK   72  A    between atoms: _164  and  _166
REMARK   73  A    between atoms: _166  and  _167
REMARK   74  A    between atoms: _169  and  _171
REMARK   75  A    between atoms: _171  and  _172
REMARK   76  A    between atoms: _171  and  _174
REMARK   77  A    between atoms: _174  and  _175
REMARK   78  A    between atoms: _181  and  _183
REMARK   79  A    between atoms: _183  and  _184
REMARK   80  A    between atoms: _183  and  _186
REMARK   81  A    between atoms: _186  and  _187
REMARK   82  A    between atoms: _190  and  _192
REMARK   83  A    between atoms: _192  and  _193
REMARK   84  A    between atoms: _192  and  _195
REMARK   85  A    between atoms: _195  and  _196
REMARK   86  A    between atoms: _199  and  _201
REMARK   87  A    between atoms: _201  and  _202
REMARK   88  A    between atoms: _201  and  _204
REMARK   89  A    between atoms: _204  and  _205
REMARK   90  A    between atoms: _209  and  _210
REMARK   91  A    between atoms: _215  and  _217
REMARK   92  A    between atoms: _217  and  _218
REMARK   93  A    between atoms: _217  and  _220
REMARK   94  A    between atoms: _223  and  _225
REMARK   95  A    between atoms: _225  and  _226
REMARK   96  A    between atoms: _225  and  _228
REMARK   97  A    between atoms: _228  and  _229
REMARK   98  A    between atoms: _234  and  _236
REMARK   99  A    between atoms: _236  and  _237
REMARK  100  A    between atoms: _236  and  _239
REMARK  101  A    between atoms: _239  and  _240
REMARK  102  A    between atoms: _243  and  _245
REMARK  103  A    between atoms: _245  and  _246
REMARK  104  A    between atoms: _245  and  _248
REMARK  105  A    between atoms: _248  and  _249
REMARK  106  A    between atoms: _252  and  _254
REMARK  107  A    between atoms: _254  and  _255
REMARK  108  A    between atoms: _257  and  _259
REMARK  109  A    between atoms: _259  and  _260
REMARK  110  A    between atoms: _259  and  _262
REMARK  111  A    between atoms: _262  and  _263
REMARK  112  A    between atoms: _263  and  _264
REMARK  113  A    between atoms: _264  and  _265
REMARK  114  A    between atoms: _274  and  _276
REMARK  115  A    between atoms: _276  and  _277
REMARK  116  A    between atoms: _276  and  _279
REMARK  117  A    between atoms: _279  and  _280
REMARK  118  A    between atoms: _280  and  _281
REMARK  119  A    between atoms: _281  and  _282
REMARK  120  A    between atoms: _291  and  _293
REMARK  121  A    between atoms: _293  and  _294
REMARK  122  A    between atoms: _293  and  _296
REMARK  123  A    between atoms: _296  and  _297
REMARK  124  A    between atoms: _300  and  _302
REMARK  125  A    between atoms: _302  and  _303
REMARK  126  A    between atoms: _302  and  _305
REMARK  127  A    between atoms: _305  and  _306
REMARK  128  A    between atoms: _309  and  _311
REMARK  129  A    between atoms: _311  and  _312
REMARK  130  A    between atoms: _311  and  _314
REMARK  131  A    between atoms: _314  and  _315
REMARK  132  A    between atoms: _318  and  _320
REMARK  133  A    between atoms: _320  and  _321
REMARK  134  A    between atoms: _320  and  _323
REMARK  135  A    between atoms: _323  and  _324
REMARK  136  A    between atoms: _327  and  _329
REMARK  137  A    between atoms: _329  and  _330
REMARK  138  A    between atoms: _329  and  _332
REMARK  139  A    between atoms: _332  and  _333
REMARK  140  A    between atoms: _336  and  _338
REMARK  141  A    between atoms: _338  and  _339
REMARK  142  A    between atoms: _341  and  _343
REMARK  143  A    between atoms: _343  and  _344
REMARK  144  A    between atoms: _347  and  _349
REMARK  145  A    between atoms: _349  and  _350
REMARK  146  A    between atoms: _349  and  _352
REMARK  147  A    between atoms: _352  and  _353
REMARK  148  A    between atoms: _356  and  _358
REMARK  149  A    between atoms: _358  and  _359
REMARK  150  A    between atoms: _358  and  _361
REMARK  151  A    between atoms: _361  and  _362
REMARK  152  A    between atoms: _365  and  _367
REMARK  153  A    between atoms: _367  and  _368
REMARK  154  A    between atoms: _367  and  _370
REMARK  155  A    between atoms: _370  and  _371
REMARK  156  A    between atoms: _374  and  _376
REMARK  157  A    between atoms: _376  and  _377
REMARK  158  A    between atoms: _376  and  _379
REMARK  159  A    between atoms: _382  and  _384
REMARK  160  A    between atoms: _384  and  _385
REMARK  161  A    between atoms: _384  and  _387
REMARK  162  A    between atoms: _387  and  _388
REMARK  163  A    between atoms: _388  and  _389
REMARK  164  A    between atoms: _389  and  _390
REMARK  165  A    between atoms: _390  and  _391
REMARK  166  A    between atoms: _395  and  _397
REMARK  167  A    between atoms: _397  and  _398
REMARK  168  A    between atoms: _397  and  _400
REMARK  169  A    between atoms: _400  and  _401
REMARK  170  A    between atoms: _401  and  _402
REMARK  171  A    between atoms: _404  and  _406
REMARK  172  A    between atoms: _406  and  _407
REMARK  173  A    between atoms: _406  and  _409
REMARK  174  A    between atoms: _409  and  _410
REMARK  175  A    between atoms: _413  and  _415
REMARK  176  A    between atoms: _415  and  _416
REMARK  177  A    between atoms: _418  and  _420
REMARK  178  A    between atoms: _420  and  _421
REMARK  179  A    between atoms: _423  and  _425
REMARK  180  A    between atoms: _425  and  _426
REMARK  181  A    between atoms: _425  and  _428
REMARK  182  A    between atoms: _428  and  _429
REMARK  183  A    between atoms: _432  and  _434
REMARK  184  A    between atoms: _434  and  _435
REMARK  185  A    between atoms: _437  and  _439
REMARK  186  A    between atoms: _439  and  _440
REMARK  187  A    between atoms: _442  and  _444
REMARK  188  A    between atoms: _444  and  _445
REMARK  189  A    between atoms: _444  and  _447
REMARK  190  A    between atoms: _447  and  _448
REMARK  191  A    between atoms: _454  and  _456
REMARK  192  A    between atoms: _456  and  _457
REMARK  193  A    between atoms: _456  and  _459
REMARK  194  A    between atoms: _459  and  _460
REMARK  195  A    between atoms: _463  and  _465
REMARK  196  A    between atoms: _465  and  _466
REMARK  197  A    between atoms: _465  and  _468
REMARK  198  A    between atoms: _471  and  _473
REMARK  199  A    between atoms: _473  and  _474
REMARK  200  A    between atoms: _473  and  _476
REMARK  201  A    between atoms: _476  and  _477
REMARK  202  A    between atoms: _480  and  _482
REMARK  203  A    between atoms: _482  and  _483
REMARK  204  A    between atoms: _482  and  _485
REMARK  205  A    between atoms: _485  and  _486
REMARK  206  A    between atoms: _490  and  _491
REMARK  207  A    between atoms: _496  and  _498
REMARK  208  A    between atoms: _498  and  _499
REMARK  209  A    between atoms: _498  and  _501
REMARK  210  A    between atoms: _504  and  _506
REMARK  211  A    between atoms: _506  and  _507
REMARK  212  A    between atoms: _506  and  _509
REMARK  213  A    between atoms: _509  and  _510
REMARK  214  A    between atoms: _515  and  _517
REMARK  215  A    between atoms: _517  and  _518
REMARK  216  A    between atoms: _517  and  _520
REMARK  217  A    between atoms: _520  and  _521
REMARK  218  A    between atoms: _524  and  _526
REMARK  219  A    between atoms: _526  and  _527
REMARK  220  A    between atoms: _526  and  _529
REMARK  221  A    between atoms: _529  and  _530
REMARK  222  A    between atoms: _533  and  _535
REMARK  223  A    between atoms: _535  and  _536
REMARK  224  A    between atoms: _538  and  _540
REMARK  225  A    between atoms: _540  and  _541
REMARK  226  A    between atoms: _540  and  _543
REMARK  227  A    between atoms: _543  and  _544
REMARK  228  A    between atoms: _544  and  _545
REMARK  229  A    between atoms: _545  and  _546
REMARK  230  A    between atoms: _555  and  _557
REMARK  231  A    between atoms: _557  and  _558
REMARK  232  A    between atoms: _557  and  _560
REMARK  233  A    between atoms: _560  and  _561
REMARK                            x       y       z     vdW  Elec       q    Type
REMARK                         _______ _______ _______ _____ _____    ______ ____
ROOT
ATOM      1  O   HOH     1      15.119  15.808  12.133  0.00  0.00    +0.000 OA
ENDROOT
TORSDOF 0
REMARK  Name = ../refined-set-2016/1mrw/1mrw_pocket.pdb
REMARK  233 active torsions:
REMARK  status: ('A' for Active; 'I' for Inactive)
REMARK    1  A    between atoms: _1  and  _3
REMARK    2  A    between atoms: _3  and  _4
REMARK    3  A    between atoms: _3  and  _6
REMARK    4  A    between atoms: _6  and  _7
REMARK    5  A    between atoms: _7  and  _8
REMARK    6  A    between atoms: _8  and  _9
REMARK    7  A    between atoms: _18  and  _20
REMARK    8  A    between atoms: _20  and  _21
REMARK    9  A    between atoms: _20  and  _23
REMARK   10  A    between atoms: _23  and  _24
REMARK   11  A    between atoms: _27  and  _29
REMARK   12  A    between atoms: _29  and  _30
REMARK   13  A    between atoms: _29  and  _32
REMARK   14  A    between atoms: _32  and  _33
REMARK   15  A    between atoms: _36  and  _38
REMARK   16  A    between atoms: _38  and  _39
REMARK   17  A    between atoms: _38  and  _41
REMARK   18  A    between atoms: _41  and  _42
REMARK   19  A    between atoms: _45  and  _47
REMARK   20  A    between atoms: _47  and  _48
REMARK   21  A    between atoms: _47  and  _50
REMARK   22  A    between atoms: _50  and  _51
REMARK   23  A    between atoms: _54  and  _56
REMARK   24  A    between atoms: _56  and  _57
REMARK   25  A    between atoms: _56  and  _59
REMARK   26  A    between atoms: _59  and  _60
REMARK   27  A    between atoms: _63  and  _65
REMARK   28  A    between atoms: _65  and  _66
REMARK   29  A    between atoms: _68  and  _70
REMARK   30  A    between atoms: _70  and  _71
REMARK   31  A    between atoms: _74  and  _76
REMARK   32  A    between atoms: _76  and  _77
REMARK   33  A    between atoms: _76  and  _79
REMARK   34  A    between atoms: _79  and  _80
REMARK   35  A    between atoms: _83  and  _85
REMARK   36  A    between atoms: _85  and  _86
REMARK   37  A    between atoms: _85  and  _88
REMARK   38  A    between atoms: _88  and  _89
REMARK   39  A    between atoms: _92  and  _94
REMARK   40  A    between atoms: _94  and  _95
REMARK   41  A    between atoms: _94  and  _97
REMARK   42  A    between atoms: _97  and  _98
REMARK   43  A    between atoms: _101  and  _103
REMARK   44  A    between atoms: _103  and  _104
REMARK   45  A    between atoms: _103  and  _106
REMARK   46  A    between atoms: _109  and  _111
REMARK   47  A    between atoms: _111  and  _112
REMARK   48  A    between atoms: _111  and  _114
REMARK   49  A    between atoms: _114  and  _115
REMARK   50  A    between atoms: _115  and  _116
REMARK   51  A    between atoms: _116  and  _117
REMARK   52  A    between atoms: _117  and  _118
REMARK   53  A    between atoms: _122  and  _124
REMARK   54  A    between atoms: _124  and  _125
REMARK   55  A    between atoms: _124  and  _127
REMARK   56  A    between atoms: _127  and  _128
REMARK   57  A    between atoms: _128  and  _129
REMARK   58  A    between atoms: _131  and  _133
REMARK   59  A    between atoms: _133  and  _134
REMARK   60  A    between atoms: _133  and  _136
REMARK   61  A    between atoms: _136  and  _137
REMARK   62  A    between atoms: _140  and  _142
REMARK   63  A    between atoms: _142  and  _143
REMARK   64  A    between atoms: _145  and  _147
REMARK   65  A    between atoms: _147  and  _148
REMARK   66  A    between atoms: _150  and  _152
REMARK   67  A    between atoms: _152  and  _153
REMARK   68  A    between atoms: _152  and  _155
REMARK   69  A    between atoms: _155  and  _156
REMARK   70  A    between atoms: _159  and  _161
REMARK   71  A    between atoms: _161  and  _162
REMARK   72  A    between atoms: _164  and  _166
REMARK   73  A    between atoms: _166  and  _167
REMARK   74  A    between atoms: _169  and  _171
REMARK   75  A    between atoms: _171  and  _172
REMARK   76  A    between atoms: _171  and  _174
REMARK   77  A    between atoms: _174  and  _175
REMARK   78  A    between atoms: _181  and  _183
REMARK   79  A    between atoms: _183  and  _184
REMARK   80  A    between atoms: _183  and  _186
REMARK   81  A    between atoms: _186  and  _187
REMARK   82  A    between atoms: _190  and  _192
REMARK   83  A    between atoms: _192  and  _193
REMARK   84  A    between atoms: _192  and  _195
REMARK   85  A    between atoms: _195  and  _196
REMARK   86  A    between atoms: _199  and  _201
REMARK   87  A    between atoms: _201  and  _202
REMARK   88  A    between atoms: _201  and  _204
REMARK   89  A    between atoms: _204  and  _205
REMARK   90  A    between atoms: _209  and  _210
REMARK   91  A    between atoms: _215  and  _217
REMARK   92  A    between atoms: _217  and  _218
REMARK   93  A    between atoms: _217  and  _220
REMARK   94  A    between atoms: _223  and  _225
REMARK   95  A    between atoms: _225  and  _226
REMARK   96  A    between atoms: _225  and  _228
REMARK   97  A    between atoms: _228  and  _229
REMARK   98  A    between atoms: _234  and  _236
REMARK   99  A    between atoms: _236  and  _237
REMARK  100  A    between atoms: _236  and  _239
REMARK  101  A    between atoms: _239  and  _240
REMARK  102  A    between atoms: _243  and  _245
REMARK  103  A    between atoms: _245  and  _246
REMARK  104  A    between atoms: _245  and  _248
REMARK  105  A    between atoms: _248  and  _249
REMARK  106  A    between atoms: _252  and  _254
REMARK  107  A    between atoms: _254  and  _255
REMARK  108  A    between atoms: _257  and  _259
REMARK  109  A    between atoms: _259  and  _260
REMARK  110  A    between atoms: _259  and  _262
REMARK  111  A    between atoms: _262  and  _263
REMARK  112  A    between atoms: _263  and  _264
REMARK  113  A    between atoms: _264  and  _265
REMARK  114  A    between atoms: _274  and  _276
REMARK  115  A    between atoms: _276  and  _277
REMARK  116  A    between atoms: _276  and  _279
REMARK  117  A    between atoms: _279  and  _280
REMARK  118  A    between atoms: _280  and  _281
REMARK  119  A    between atoms: _281  and  _282
REMARK  120  A    between atoms: _291  and  _293
REMARK  121  A    between atoms: _293  and  _294
REMARK  122  A    between atoms: _293  and  _296
REMARK  123  A    between atoms: _296  and  _297
REMARK  124  A    between atoms: _300  and  _302
REMARK  125  A    between atoms: _302  and  _303
REMARK  126  A    between atoms: _302  and  _305
REMARK  127  A    between atoms: _305  and  _306
REMARK  128  A    between atoms: _309  and  _311
REMARK  129  A    between atoms: _311  and  _312
REMARK  130  A    between atoms: _311  and  _314
REMARK  131  A    between atoms: _314  and  _315
REMARK  132  A    between atoms: _318  and  _320
REMARK  133  A    between atoms: _320  and  _321
REMARK  134  A    between atoms: _320  and  _323
REMARK  135  A    between atoms: _323  and  _324
REMARK  136  A    between atoms: _327  and  _329
REMARK  137  A    between atoms: _329  and  _330
REMARK  138  A    between atoms: _329  and  _332
REMARK  139  A    between atoms: _332  and  _333
REMARK  140  A    between atoms: _336  and  _338
REMARK  141  A    between atoms: _338  and  _339
REMARK  142  A    between atoms: _341  and  _343
REMARK  143  A    between atoms: _343  and  _344
REMARK  144  A    between atoms: _347  and  _349
REMARK  145  A    between atoms: _349  and  _350
REMARK  146  A    between atoms: _349  and  _352
REMARK  147  A    between atoms: _352  and  _353
REMARK  148  A    between atoms: _356  and  _358
REMARK  149  A    between atoms: _358  and  _359
REMARK  150  A    between atoms: _358  and  _361
REMARK  151  A    between atoms: _361  and  _362
REMARK  152  A    between atoms: _365  and  _367
REMARK  153  A    between atoms: _367  and  _368
REMARK  154  A    between atoms: _367  and  _370
REMARK  155  A    between atoms: _370  and  _371
REMARK  156  A    between atoms: _374  and  _376
REMARK  157  A    between atoms: _376  and  _377
REMARK  158  A    between atoms: _376  and  _379
REMARK  159  A    between atoms: _382  and  _384
REMARK  160  A    between atoms: _384  and  _385
REMARK  161  A    between atoms: _384  and  _387
REMARK  162  A    between atoms: _387  and  _388
REMARK  163  A    between atoms: _388  and  _389
REMARK  164  A    between atoms: _389  and  _390
REMARK  165  A    between atoms: _390  and  _391
REMARK  166  A    between atoms: _395  and  _397
REMARK  167  A    between atoms: _397  and  _398
REMARK  168  A    between atoms: _397  and  _400
REMARK  169  A    between atoms: _400  and  _401
REMARK  170  A    between atoms: _401  and  _402
REMARK  171  A    between atoms: _404  and  _406
REMARK  172  A    between atoms: _406  and  _407
REMARK  173  A    between atoms: _406  and  _409
REMARK  174  A    between atoms: _409  and  _410
REMARK  175  A    between atoms: _413  and  _415
REMARK  176  A    between atoms: _415  and  _416
REMARK  177  A    between atoms: _418  and  _420
REMARK  178  A    between atoms: _420  and  _421
REMARK  179  A    between atoms: _423  and  _425
REMARK  180  A    between atoms: _425  and  _426
REMARK  181  A    between atoms: _425  and  _428
REMARK  182  A    between atoms: _428  and  _429
REMARK  183  A    between atoms: _432  and  _434
REMARK  184  A    between atoms: _434  and  _435
REMARK  185  A    between atoms: _437  and  _439
REMARK  186  A    between atoms: _439  and  _440
REMARK  187  A    between atoms: _442  and  _444
REMARK  188  A    between atoms: _444  and  _445
REMARK  189  A    between atoms: _444  and  _447
REMARK  190  A    between atoms: _447  and  _448
REMARK  191  A    between atoms: _454  and  _456
REMARK  192  A    between atoms: _456  and  _457
REMARK  193  A    between atoms: _456  and  _459
REMARK  194  A    between atoms: _459  and  _460
REMARK  195  A    between atoms: _463  and  _465
REMARK  196  A    between atoms: _465  and  _466
REMARK  197  A    between atoms: _465  and  _468
REMARK  198  A    between atoms: _471  and  _473
REMARK  199  A    between atoms: _473  and  _474
REMARK  200  A    between atoms: _473  and  _476
REMARK  201  A    between atoms: _476  and  _477
REMARK  202  A    between atoms: _480  and  _482
REMARK  203  A    between atoms: _482  and  _483
REMARK  204  A    between atoms: _482  and  _485
REMARK  205  A    between atoms: _485  and  _486
REMARK  206  A    between atoms: _490  and  _491
REMARK  207  A    between atoms: _496  and  _498
REMARK  208  A    between atoms: _498  and  _499
REMARK  209  A    between atoms: _498  and  _501
REMARK  210  A    between atoms: _504  and  _506
REMARK  211  A    between atoms: _506  and  _507
REMARK  212  A    between atoms: _506  and  _509
REMARK  213  A    between atoms: _509  and  _510
REMARK  214  A    between atoms: _515  and  _517
REMARK  215  A    between atoms: _517  and  _518
REMARK  216  A    between atoms: _517  and  _520
REMARK  217  A    between atoms: _520  and  _521
REMARK  218  A    between atoms: _524  and  _526
REMARK  219  A    between atoms: _526  and  _527
REMARK  220  A    between atoms: _526  and  _529
REMARK  221  A    between atoms: _529  and  _530
REMARK  222  A    between atoms: _533  and  _535
REMARK  223  A    between atoms: _535  and  _536
REMARK  224  A    between atoms: _538  and  _540
REMARK  225  A    between atoms: _540  and  _541
REMARK  226  A    between atoms: _540  and  _543
REMARK  227  A    between atoms: _543  and  _544
REMARK  228  A    between atoms: _544  and  _545
REMARK  229  A    between atoms: _545  and  _546
REMARK  230  A    between atoms: _555  and  _557
REMARK  231  A    between atoms: _557  and  _558
REMARK  232  A    between atoms: _557  and  _560
REMARK  233  A    between atoms: _560  and  _561
REMARK                            x       y       z     vdW  Elec       q    Type
REMARK                         _______ _______ _______ _____ _____    ______ ____
ROOT
ATOM      1  O   HOH     1       6.644  14.526  21.303  0.00  0.00    +0.000 OA
ENDROOT
TORSDOF 0
REMARK  Name = ../refined-set-2016/1mrw/1mrw_pocket.pdb
REMARK  233 active torsions:
REMARK  status: ('A' for Active; 'I' for Inactive)
REMARK    1  A    between atoms: _1  and  _3
REMARK    2  A    between atoms: _3  and  _4
REMARK    3  A    between atoms: _3  and  _6
REMARK    4  A    between atoms: _6  and  _7
REMARK    5  A    between atoms: _7  and  _8
REMARK    6  A    between atoms: _8  and  _9
REMARK    7  A    between atoms: _18  and  _20
REMARK    8  A    between atoms: _20  and  _21
REMARK    9  A    between atoms: _20  and  _23
REMARK   10  A    between atoms: _23  and  _24
REMARK   11  A    between atoms: _27  and  _29
REMARK   12  A    between atoms: _29  and  _30
REMARK   13  A    between atoms: _29  and  _32
REMARK   14  A    between atoms: _32  and  _33
REMARK   15  A    between atoms: _36  and  _38
REMARK   16  A    between atoms: _38  and  _39
REMARK   17  A    between atoms: _38  and  _41
REMARK   18  A    between atoms: _41  and  _42
REMARK   19  A    between atoms: _45  and  _47
REMARK   20  A    between atoms: _47  and  _48
REMARK   21  A    between atoms: _47  and  _50
REMARK   22  A    between atoms: _50  and  _51
REMARK   23  A    between atoms: _54  and  _56
REMARK   24  A    between atoms: _56  and  _57
REMARK   25  A    between atoms: _56  and  _59
REMARK   26  A    between atoms: _59  and  _60
REMARK   27  A    between atoms: _63  and  _65
REMARK   28  A    between atoms: _65  and  _66
REMARK   29  A    between atoms: _68  and  _70
REMARK   30  A    between atoms: _70  and  _71
REMARK   31  A    between atoms: _74  and  _76
REMARK   32  A    between atoms: _76  and  _77
REMARK   33  A    between atoms: _76  and  _79
REMARK   34  A    between atoms: _79  and  _80
REMARK   35  A    between atoms: _83  and  _85
REMARK   36  A    between atoms: _85  and  _86
REMARK   37  A    between atoms: _85  and  _88
REMARK   38  A    between atoms: _88  and  _89
REMARK   39  A    between atoms: _92  and  _94
REMARK   40  A    between atoms: _94  and  _95
REMARK   41  A    between atoms: _94  and  _97
REMARK   42  A    between atoms: _97  and  _98
REMARK   43  A    between atoms: _101  and  _103
REMARK   44  A    between atoms: _103  and  _104
REMARK   45  A    between atoms: _103  and  _106
REMARK   46  A    between atoms: _109  and  _111
REMARK   47  A    between atoms: _111  and  _112
REMARK   48  A    between atoms: _111  and  _114
REMARK   49  A    between atoms: _114  and  _115
REMARK   50  A    between atoms: _115  and  _116
REMARK   51  A    between atoms: _116  and  _117
REMARK   52  A    between atoms: _117  and  _118
REMARK   53  A    between atoms: _122  and  _124
REMARK   54  A    between atoms: _124  and  _125
REMARK   55  A    between atoms: _124  and  _127
REMARK   56  A    between atoms: _127  and  _128
REMARK   57  A    between atoms: _128  and  _129
REMARK   58  A    between atoms: _131  and  _133
REMARK   59  A    between atoms: _133  and  _134
REMARK   60  A    between atoms: _133  and  _136
REMARK   61  A    between atoms: _136  and  _137
REMARK   62  A    between atoms: _140  and  _142
REMARK   63  A    between atoms: _142  and  _143
REMARK   64  A    between atoms: _145  and  _147
REMARK   65  A    between atoms: _147  and  _148
REMARK   66  A    between atoms: _150  and  _152
REMARK   67  A    between atoms: _152  and  _153
REMARK   68  A    between atoms: _152  and  _155
REMARK   69  A    between atoms: _155  and  _156
REMARK   70  A    between atoms: _159  and  _161
REMARK   71  A    between atoms: _161  and  _162
REMARK   72  A    between atoms: _164  and  _166
REMARK   73  A    between atoms: _166  and  _167
REMARK   74  A    between atoms: _169  and  _171
REMARK   75  A    between atoms: _171  and  _172
REMARK   76  A    between atoms: _171  and  _174
REMARK   77  A    between atoms: _174  and  _175
REMARK   78  A    between atoms: _181  and  _183
REMARK   79  A    between atoms: _183  and  _184
REMARK   80  A    between atoms: _183  and  _186
REMARK   81  A    between atoms: _186  and  _187
REMARK   82  A    between atoms: _190  and  _192
REMARK   83  A    between atoms: _192  and  _193
REMARK   84  A    between atoms: _192  and  _195
REMARK   85  A    between atoms: _195  and  _196
REMARK   86  A    between atoms: _199  and  _201
REMARK   87  A    between atoms: _201  and  _202
REMARK   88  A    between atoms: _201  and  _204
REMARK   89  A    between atoms: _204  and  _205
REMARK   90  A    between atoms: _209  and  _210
REMARK   91  A    between atoms: _215  and  _217
REMARK   92  A    between atoms: _217  and  _218
REMARK   93  A    between atoms: _217  and  _220
REMARK   94  A    between atoms: _223  and  _225
REMARK   95  A    between atoms: _225  and  _226
REMARK   96  A    between atoms: _225  and  _228
REMARK   97  A    between atoms: _228  and  _229
REMARK   98  A    between atoms: _234  and  _236
REMARK   99  A    between atoms: _236  and  _237
REMARK  100  A    between atoms: _236  and  _239
REMARK  101  A    between atoms: _239  and  _240
REMARK  102  A    between atoms: _243  and  _245
REMARK  103  A    between atoms: _245  and  _246
REMARK  104  A    between atoms: _245  and  _248
REMARK  105  A    between atoms: _248  and  _249
REMARK  106  A    between atoms: _252  and  _254
REMARK  107  A    between atoms: _254  and  _255
REMARK  108  A    between atoms: _257  and  _259
REMARK  109  A    between atoms: _259  and  _260
REMARK  110  A    between atoms: _259  and  _262
REMARK  111  A    between atoms: _262  and  _263
REMARK  112  A    between atoms: _263  and  _264
REMARK  113  A    between atoms: _264  and  _265
REMARK  114  A    between atoms: _274  and  _276
REMARK  115  A    between atoms: _276  and  _277
REMARK  116  A    between atoms: _276  and  _279
REMARK  117  A    between atoms: _279  and  _280
REMARK  118  A    between atoms: _280  and  _281
REMARK  119  A    between atoms: _281  and  _282
REMARK  120  A    between atoms: _291  and  _293
REMARK  121  A    between atoms: _293  and  _294
REMARK  122  A    between atoms: _293  and  _296
REMARK  123  A    between atoms: _296  and  _297
REMARK  124  A    between atoms: _300  and  _302
REMARK  125  A    between atoms: _302  and  _303
REMARK  126  A    between atoms: _302  and  _305
REMARK  127  A    between atoms: _305  and  _306
REMARK  128  A    between atoms: _309  and  _311
REMARK  129  A    between atoms: _311  and  _312
REMARK  130  A    between atoms: _311  and  _314
REMARK  131  A    between atoms: _314  and  _315
REMARK  132  A    between atoms: _318  and  _320
REMARK  133  A    between atoms: _320  and  _321
REMARK  134  A    between atoms: _320  and  _323
REMARK  135  A    between atoms: _323  and  _324
REMARK  136  A    between atoms: _327  and  _329
REMARK  137  A    between atoms: _329  and  _330
REMARK  138  A    between atoms: _329  and  _332
REMARK  139  A    between atoms: _332  and  _333
REMARK  140  A    between atoms: _336  and  _338
REMARK  141  A    between atoms: _338  and  _339
REMARK  142  A    between atoms: _341  and  _343
REMARK  143  A    between atoms: _343  and  _344
REMARK  144  A    between atoms: _347  and  _349
REMARK  145  A    between atoms: _349  and  _350
REMARK  146  A    between atoms: _349  and  _352
REMARK  147  A    between atoms: _352  and  _353
REMARK  148  A    between atoms: _356  and  _358
REMARK  149  A    between atoms: _358  and  _359
REMARK  150  A    between atoms: _358  and  _361
REMARK  151  A    between atoms: _361  and  _362
REMARK  152  A    between atoms: _365  and  _367
REMARK  153  A    between atoms: _367  and  _368
REMARK  154  A    between atoms: _367  and  _370
REMARK  155  A    between atoms: _370  and  _371
REMARK  156  A    between atoms: _374  and  _376
REMARK  157  A    between atoms: _376  and  _377
REMARK  158  A    between atoms: _376  and  _379
REMARK  159  A    between atoms: _382  and  _384
REMARK  160  A    between atoms: _384  and  _385
REMARK  161  A    between atoms: _384  and  _387
REMARK  162  A    between atoms: _387  and  _388
REMARK  163  A    between atoms: _388  and  _389
REMARK  164  A    between atoms: _389  and  _390
REMARK  165  A    between atoms: _390  and  _391
REMARK  166  A    between atoms: _395  and  _397
REMARK  167  A    between atoms: _397  and  _398
REMARK  168  A    between atoms: _397  and  _400
REMARK  169  A    between atoms: _400  and  _401
REMARK  170  A    between atoms: _401  and  _402
REMARK  171  A    between atoms: _404  and  _406
REMARK  172  A    between atoms: _406  and  _407
REMARK  173  A    between atoms: _406  and  _409
REMARK  174  A    between atoms: _409  and  _410
REMARK  175  A    between atoms: _413  and  _415
REMARK  176  A    between atoms: _415  and  _416
REMARK  177  A    between atoms: _418  and  _420
REMARK  178  A    between atoms: _420  and  _421
REMARK  179  A    between atoms: _423  and  _425
REMARK  180  A    between atoms: _425  and  _426
REMARK  181  A    between atoms: _425  and  _428
REMARK  182  A    between atoms: _428  and  _429
REMARK  183  A    between atoms: _432  and  _434
REMARK  184  A    between atoms: _434  and  _435
REMARK  185  A    between atoms: _437  and  _439
REMARK  186  A    between atoms: _439  and  _440
REMARK  187  A    between atoms: _442  and  _444
REMARK  188  A    between atoms: _444  and  _445
REMARK  189  A    between atoms: _444  and  _447
REMARK  190  A    between atoms: _447  and  _448
REMARK  191  A    between atoms: _454  and  _456
REMARK  192  A    between atoms: _456  and  _457
REMARK  193  A    between atoms: _456  and  _459
REMARK  194  A    between atoms: _459  and  _460
REMARK  195  A    between atoms: _463  and  _465
REMARK  196  A    between atoms: _465  and  _466
REMARK  197  A    between atoms: _465  and  _468
REMARK  198  A    between atoms: _471  and  _473
REMARK  199  A    between atoms: _473  and  _474
REMARK  200  A    between atoms: _473  and  _476
REMARK  201  A    between atoms: _476  and  _477
REMARK  202  A    between atoms: _480  and  _482
REMARK  203  A    between atoms: _482  and  _483
REMARK  204  A    between atoms: _482  and  _485
REMARK  205  A    between atoms: _485  and  _486
REMARK  206  A    between atoms: _490  and  _491
REMARK  207  A    between atoms: _496  and  _498
REMARK  208  A    between atoms: _498  and  _499
REMARK  209  A    between atoms: _498  and  _501
REMARK  210  A    between atoms: _504  and  _506
REMARK  211  A    between atoms: _506  and  _507
REMARK  212  A    between atoms: _506  and  _509
REMARK  213  A    between atoms: _509  and  _510
REMARK  214  A    between atoms: _515  and  _517
REMARK  215  A    between atoms: _517  and  _518
REMARK  216  A    between atoms: _517  and  _520
REMARK  217  A    between atoms: _520  and  _521
REMARK  218  A    between atoms: _524  and  _526
REMARK  219  A    between atoms: _526  and  _527
REMARK  220  A    between atoms: _526  and  _529
REMARK  221  A    between atoms: _529  and  _530
REMARK  222  A    between atoms: _533  and  _535
REMARK  223  A    between atoms: _535  and  _536
REMARK  224  A    between atoms: _538  and  _540
REMARK  225  A    between atoms: _540  and  _541
REMARK  226  A    between atoms: _540  and  _543
REMARK  227  A    between atoms: _543  and  _544
REMARK  228  A    between atoms: _544  and  _545
REMARK  229  A    between atoms: _545  and  _546
REMARK  230  A    between atoms: _555  and  _557
REMARK  231  A    between atoms: _557  and  _558
REMARK  232  A    between atoms: _557  and  _560
REMARK  233  A    between atoms: _560  and  _561
REMARK                            x       y       z     vdW  Elec       q    Type
REMARK                         _______ _______ _______ _____ _____    ______ ____
ROOT
ATOM      1  O   HOH     1       7.089  15.654  25.450  0.00  0.00    +0.000 OA
ENDROOT
TORSDOF 0
REMARK  Name = ../refined-set-2016/1mrw/1mrw_pocket.pdb
REMARK  233 active torsions:
REMARK  status: ('A' for Active; 'I' for Inactive)
REMARK    1  A    between atoms: _1  and  _3
REMARK    2  A    between atoms: _3  and  _4
REMARK    3  A    between atoms: _3  and  _6
REMARK    4  A    between atoms: _6  and  _7
REMARK    5  A    between atoms: _7  and  _8
REMARK    6  A    between atoms: _8  and  _9
REMARK    7  A    between atoms: _18  and  _20
REMARK    8  A    between atoms: _20  and  _21
REMARK    9  A    between atoms: _20  and  _23
REMARK   10  A    between atoms: _23  and  _24
REMARK   11  A    between atoms: _27  and  _29
REMARK   12  A    between atoms: _29  and  _30
REMARK   13  A    between atoms: _29  and  _32
REMARK   14  A    between atoms: _32  and  _33
REMARK   15  A    between atoms: _36  and  _38
REMARK   16  A    between atoms: _38  and  _39
REMARK   17  A    between atoms: _38  and  _41
REMARK   18  A    between atoms: _41  and  _42
REMARK   19  A    between atoms: _45  and  _47
REMARK   20  A    between atoms: _47  and  _48
REMARK   21  A    between atoms: _47  and  _50
REMARK   22  A    between atoms: _50  and  _51
REMARK   23  A    between atoms: _54  and  _56
REMARK   24  A    between atoms: _56  and  _57
REMARK   25  A    between atoms: _56  and  _59
REMARK   26  A    between atoms: _59  and  _60
REMARK   27  A    between atoms: _63  and  _65
REMARK   28  A    between atoms: _65  and  _66
REMARK   29  A    between atoms: _68  and  _70
REMARK   30  A    between atoms: _70  and  _71
REMARK   31  A    between atoms: _74  and  _76
REMARK   32  A    between atoms: _76  and  _77
REMARK   33  A    between atoms: _76  and  _79
REMARK   34  A    between atoms: _79  and  _80
REMARK   35  A    between atoms: _83  and  _85
REMARK   36  A    between atoms: _85  and  _86
REMARK   37  A    between atoms: _85  and  _88
REMARK   38  A    between atoms: _88  and  _89
REMARK   39  A    between atoms: _92  and  _94
REMARK   40  A    between atoms: _94  and  _95
REMARK   41  A    between atoms: _94  and  _97
REMARK   42  A    between atoms: _97  and  _98
REMARK   43  A    between atoms: _101  and  _103
REMARK   44  A    between atoms: _103  and  _104
REMARK   45  A    between atoms: _103  and  _106
REMARK   46  A    between atoms: _109  and  _111
REMARK   47  A    between atoms: _111  and  _112
REMARK   48  A    between atoms: _111  and  _114
REMARK   49  A    between atoms: _114  and  _115
REMARK   50  A    between atoms: _115  and  _116
REMARK   51  A    between atoms: _116  and  _117
REMARK   52  A    between atoms: _117  and  _118
REMARK   53  A    between atoms: _122  and  _124
REMARK   54  A    between atoms: _124  and  _125
REMARK   55  A    between atoms: _124  and  _127
REMARK   56  A    between atoms: _127  and  _128
REMARK   57  A    between atoms: _128  and  _129
REMARK   58  A    between atoms: _131  and  _133
REMARK   59  A    between atoms: _133  and  _134
REMARK   60  A    between atoms: _133  and  _136
REMARK   61  A    between atoms: _136  and  _137
REMARK   62  A    between atoms: _140  and  _142
REMARK   63  A    between atoms: _142  and  _143
REMARK   64  A    between atoms: _145  and  _147
REMARK   65  A    between atoms: _147  and  _148
REMARK   66  A    between atoms: _150  and  _152
REMARK   67  A    between atoms: _152  and  _153
REMARK   68  A    between atoms: _152  and  _155
REMARK   69  A    between atoms: _155  and  _156
REMARK   70  A    between atoms: _159  and  _161
REMARK   71  A    between atoms: _161  and  _162
REMARK   72  A    between atoms: _164  and  _166
REMARK   73  A    between atoms: _166  and  _167
REMARK   74  A    between atoms: _169  and  _171
REMARK   75  A    between atoms: _171  and  _172
REMARK   76  A    between atoms: _171  and  _174
REMARK   77  A    between atoms: _174  and  _175
REMARK   78  A    between atoms: _181  and  _183
REMARK   79  A    between atoms: _183  and  _184
REMARK   80  A    between atoms: _183  and  _186
REMARK   81  A    between atoms: _186  and  _187
REMARK   82  A    between atoms: _190  and  _192
REMARK   83  A    between atoms: _192  and  _193
REMARK   84  A    between atoms: _192  and  _195
REMARK   85  A    between atoms: _195  and  _196
REMARK   86  A    between atoms: _199  and  _201
REMARK   87  A    between atoms: _201  and  _202
REMARK   88  A    between atoms: _201  and  _204
REMARK   89  A    between atoms: _204  and  _205
REMARK   90  A    between atoms: _209  and  _210
REMARK   91  A    between atoms: _215  and  _217
REMARK   92  A    between atoms: _217  and  _218
REMARK   93  A    between atoms: _217  and  _220
REMARK   94  A    between atoms: _223  and  _225
REMARK   95  A    between atoms: _225  and  _226
REMARK   96  A    between atoms: _225  and  _228
REMARK   97  A    between atoms: _228  and  _229
REMARK   98  A    between atoms: _234  and  _236
REMARK   99  A    between atoms: _236  and  _237
REMARK  100  A    between atoms: _236  and  _239
REMARK  101  A    between atoms: _239  and  _240
REMARK  102  A    between atoms: _243  and  _245
REMARK  103  A    between atoms: _245  and  _246
REMARK  104  A    between atoms: _245  and  _248
REMARK  105  A    between atoms: _248  and  _249
REMARK  106  A    between atoms: _252  and  _254
REMARK  107  A    between atoms: _254  and  _255
REMARK  108  A    between atoms: _257  and  _259
REMARK  109  A    between atoms: _259  and  _260
REMARK  110  A    between atoms: _259  and  _262
REMARK  111  A    between atoms: _262  and  _263
REMARK  112  A    between atoms: _263  and  _264
REMARK  113  A    between atoms: _264  and  _265
REMARK  114  A    between atoms: _274  and  _276
REMARK  115  A    between atoms: _276  and  _277
REMARK  116  A    between atoms: _276  and  _279
REMARK  117  A    between atoms: _279  and  _280
REMARK  118  A    between atoms: _280  and  _281
REMARK  119  A    between atoms: _281  and  _282
REMARK  120  A    between atoms: _291  and  _293
REMARK  121  A    between atoms: _293  and  _294
REMARK  122  A    between atoms: _293  and  _296
REMARK  123  A    between atoms: _296  and  _297
REMARK  124  A    between atoms: _300  and  _302
REMARK  125  A    between atoms: _302  and  _303
REMARK  126  A    between atoms: _302  and  _305
REMARK  127  A    between atoms: _305  and  _306
REMARK  128  A    between atoms: _309  and  _311
REMARK  129  A    between atoms: _311  and  _312
REMARK  130  A    between atoms: _311  and  _314
REMARK  131  A    between atoms: _314  and  _315
REMARK  132  A    between atoms: _318  and  _320
REMARK  133  A    between atoms: _320  and  _321
REMARK  134  A    between atoms: _320  and  _323
REMARK  135  A    between atoms: _323  and  _324
REMARK  136  A    between atoms: _327  and  _329
REMARK  137  A    between atoms: _329  and  _330
REMARK  138  A    between atoms: _329  and  _332
REMARK  139  A    between atoms: _332  and  _333
REMARK  140  A    between atoms: _336  and  _338
REMARK  141  A    between atoms: _338  and  _339
REMARK  142  A    between atoms: _341  and  _343
REMARK  143  A    between atoms: _343  and  _344
REMARK  144  A    between atoms: _347  and  _349
REMARK  145  A    between atoms: _349  and  _350
REMARK  146  A    between atoms: _349  and  _352
REMARK  147  A    between atoms: _352  and  _353
REMARK  148  A    between atoms: _356  and  _358
REMARK  149  A    between atoms: _358  and  _359
REMARK  150  A    between atoms: _358  and  _361
REMARK  151  A    between atoms: _361  and  _362
REMARK  152  A    between atoms: _365  and  _367
REMARK  153  A    between atoms: _367  and  _368
REMARK  154  A    between atoms: _367  and  _370
REMARK  155  A    between atoms: _370  and  _371
REMARK  156  A    between atoms: _374  and  _376
REMARK  157  A    between atoms: _376  and  _377
REMARK  158  A    between atoms: _376  and  _379
REMARK  159  A    between atoms: _382  and  _384
REMARK  160  A    between atoms: _384  and  _385
REMARK  161  A    between atoms: _384  and  _387
REMARK  162  A    between atoms: _387  and  _388
REMARK  163  A    between atoms: _388  and  _389
REMARK  164  A    between atoms: _389  and  _390
REMARK  165  A    between atoms: _390  and  _391
REMARK  166  A    between atoms: _395  and  _397
REMARK  167  A    between atoms: _397  and  _398
REMARK  168  A    between atoms: _397  and  _400
REMARK  169  A    between atoms: _400  and  _401
REMARK  170  A    between atoms: _401  and  _402
REMARK  171  A    between atoms: _404  and  _406
REMARK  172  A    between atoms: _406  and  _407
REMARK  173  A    between atoms: _406  and  _409
REMARK  174  A    between atoms: _409  and  _410
REMARK  175  A    between atoms: _413  and  _415
REMARK  176  A    between atoms: _415  and  _416
REMARK  177  A    between atoms: _418  and  _420
REMARK  178  A    between atoms: _420  and  _421
REMARK  179  A    between atoms: _423  and  _425
REMARK  180  A    between atoms: _425  and  _426
REMARK  181  A    between atoms: _425  and  _428
REMARK  182  A    between atoms: _428  and  _429
REMARK  183  A    between atoms: _432  and  _434
REMARK  184  A    between atoms: _434  and  _435
REMARK  185  A    between atoms: _437  and  _439
REMARK  186  A    between atoms: _439  and  _440
REMARK  187  A    between atoms: _442  and  _444
REMARK  188  A    between atoms: _444  and  _445
REMARK  189  A    between atoms: _444  and  _447
REMARK  190  A    between atoms: _447  and  _448
REMARK  191  A    between atoms: _454  and  _456
REMARK  192  A    between atoms: _456  and  _457
REMARK  193  A    between atoms: _456  and  _459
REMARK  194  A    between atoms: _459  and  _460
REMARK  195  A    between atoms: _463  and  _465
REMARK  196  A    between atoms: _465  and  _466
REMARK  197  A    between atoms: _465  and  _468
REMARK  198  A    between atoms: _471  and  _473
REMARK  199  A    between atoms: _473  and  _474
REMARK  200  A    between atoms: _473  and  _476
REMARK  201  A    between atoms: _476  and  _477
REMARK  202  A    between atoms: _480  and  _482
REMARK  203  A    between atoms: _482  and  _483
REMARK  204  A    between atoms: _482  and  _485
REMARK  205  A    between atoms: _485  and  _486
REMARK  206  A    between atoms: _490  and  _491
REMARK  207  A    between atoms: _496  and  _498
REMARK  208  A    between atoms: _498  and  _499
REMARK  209  A    between atoms: _498  and  _501
REMARK  210  A    between atoms: _504  and  _506
REMARK  211  A    between atoms: _506  and  _507
REMARK  212  A    between atoms: _506  and  _509
REMARK  213  A    between atoms: _509  and  _510
REMARK  214  A    between atoms: _515  and  _517
REMARK  215  A    between atoms: _517  and  _518
REMARK  216  A    between atoms: _517  and  _520
REMARK  217  A    between atoms: _520  and  _521
REMARK  218  A    between atoms: _524  and  _526
REMARK  219  A    between atoms: _526  and  _527
REMARK  220  A    between atoms: _526  and  _529
REMARK  221  A    between atoms: _529  and  _530
REMARK  222  A    between atoms: _533  and  _535
REMARK  223  A    between atoms: _535  and  _536
REMARK  224  A    between atoms: _538  and  _540
REMARK  225  A    between atoms: _540  and  _541
REMARK  226  A    between atoms: _540  and  _543
REMARK  227  A    between atoms: _543  and  _544
REMARK  228  A    between atoms: _544  and  _545
REMARK  229  A    between atoms: _545  and  _546
REMARK  230  A    between atoms: _555  and  _557
REMARK  231  A    between atoms: _557  and  _558
REMARK  232  A    between atoms: _557  and  _560
REMARK  233  A    between atoms: _560  and  _561
REMARK                            x       y       z     vdW  Elec       q    Type
REMARK                         _______ _______ _______ _____ _____    ______ ____
ROOT
ATOM      1  O   HOH     1       9.030  14.669  19.382  0.00  0.00    +0.000 OA
ENDROOT
TORSDOF 0
REMARK  Name = ../refined-set-2016/1mrw/1mrw_pocket.pdb
REMARK  233 active torsions:
REMARK  status: ('A' for Active; 'I' for Inactive)
REMARK    1  A    between atoms: _1  and  _3
REMARK    2  A    between atoms: _3  and  _4
REMARK    3  A    between atoms: _3  and  _6
REMARK    4  A    between atoms: _6  and  _7
REMARK    5  A    between atoms: _7  and  _8
REMARK    6  A    between atoms: _8  and  _9
REMARK    7  A    between atoms: _18  and  _20
REMARK    8  A    between atoms: _20  and  _21
REMARK    9  A    between atoms: _20  and  _23
REMARK   10  A    between atoms: _23  and  _24
REMARK   11  A    between atoms: _27  and  _29
REMARK   12  A    between atoms: _29  and  _30
REMARK   13  A    between atoms: _29  and  _32
REMARK   14  A    between atoms: _32  and  _33
REMARK   15  A    between atoms: _36  and  _38
REMARK   16  A    between atoms: _38  and  _39
REMARK   17  A    between atoms: _38  and  _41
REMARK   18  A    between atoms: _41  and  _42
REMARK   19  A    between atoms: _45  and  _47
REMARK   20  A    between atoms: _47  and  _48
REMARK   21  A    between atoms: _47  and  _50
REMARK   22  A    between atoms: _50  and  _51
REMARK   23  A    between atoms: _54  and  _56
REMARK   24  A    between atoms: _56  and  _57
REMARK   25  A    between atoms: _56  and  _59
REMARK   26  A    between atoms: _59  and  _60
REMARK   27  A    between atoms: _63  and  _65
REMARK   28  A    between atoms: _65  and  _66
REMARK   29  A    between atoms: _68  and  _70
REMARK   30  A    between atoms: _70  and  _71
REMARK   31  A    between atoms: _74  and  _76
REMARK   32  A    between atoms: _76  and  _77
REMARK   33  A    between atoms: _76  and  _79
REMARK   34  A    between atoms: _79  and  _80
REMARK   35  A    between atoms: _83  and  _85
REMARK   36  A    between atoms: _85  and  _86
REMARK   37  A    between atoms: _85  and  _88
REMARK   38  A    between atoms: _88  and  _89
REMARK   39  A    between atoms: _92  and  _94
REMARK   40  A    between atoms: _94  and  _95
REMARK   41  A    between atoms: _94  and  _97
REMARK   42  A    between atoms: _97  and  _98
REMARK   43  A    between atoms: _101  and  _103
REMARK   44  A    between atoms: _103  and  _104
REMARK   45  A    between atoms: _103  and  _106
REMARK   46  A    between atoms: _109  and  _111
REMARK   47  A    between atoms: _111  and  _112
REMARK   48  A    between atoms: _111  and  _114
REMARK   49  A    between atoms: _114  and  _115
REMARK   50  A    between atoms: _115  and  _116
REMARK   51  A    between atoms: _116  and  _117
REMARK   52  A    between atoms: _117  and  _118
REMARK   53  A    between atoms: _122  and  _124
REMARK   54  A    between atoms: _124  and  _125
REMARK   55  A    between atoms: _124  and  _127
REMARK   56  A    between atoms: _127  and  _128
REMARK   57  A    between atoms: _128  and  _129
REMARK   58  A    between atoms: _131  and  _133
REMARK   59  A    between atoms: _133  and  _134
REMARK   60  A    between atoms: _133  and  _136
REMARK   61  A    between atoms: _136  and  _137
REMARK   62  A    between atoms: _140  and  _142
REMARK   63  A    between atoms: _142  and  _143
REMARK   64  A    between atoms: _145  and  _147
REMARK   65  A    between atoms: _147  and  _148
REMARK   66  A    between atoms: _150  and  _152
REMARK   67  A    between atoms: _152  and  _153
REMARK   68  A    between atoms: _152  and  _155
REMARK   69  A    between atoms: _155  and  _156
REMARK   70  A    between atoms: _159  and  _161
REMARK   71  A    between atoms: _161  and  _162
REMARK   72  A    between atoms: _164  and  _166
REMARK   73  A    between atoms: _166  and  _167
REMARK   74  A    between atoms: _169  and  _171
REMARK   75  A    between atoms: _171  and  _172
REMARK   76  A    between atoms: _171  and  _174
REMARK   77  A    between atoms: _174  and  _175
REMARK   78  A    between atoms: _181  and  _183
REMARK   79  A    between atoms: _183  and  _184
REMARK   80  A    between atoms: _183  and  _186
REMARK   81  A    between atoms: _186  and  _187
REMARK   82  A    between atoms: _190  and  _192
REMARK   83  A    between atoms: _192  and  _193
REMARK   84  A    between atoms: _192  and  _195
REMARK   85  A    between atoms: _195  and  _196
REMARK   86  A    between atoms: _199  and  _201
REMARK   87  A    between atoms: _201  and  _202
REMARK   88  A    between atoms: _201  and  _204
REMARK   89  A    between atoms: _204  and  _205
REMARK   90  A    between atoms: _209  and  _210
REMARK   91  A    between atoms: _215  and  _217
REMARK   92  A    between atoms: _217  and  _218
REMARK   93  A    between atoms: _217  and  _220
REMARK   94  A    between atoms: _223  and  _225
REMARK   95  A    between atoms: _225  and  _226
REMARK   96  A    between atoms: _225  and  _228
REMARK   97  A    between atoms: _228  and  _229
REMARK   98  A    between atoms: _234  and  _236
REMARK   99  A    between atoms: _236  and  _237
REMARK  100  A    between atoms: _236  and  _239
REMARK  101  A    between atoms: _239  and  _240
REMARK  102  A    between atoms: _243  and  _245
REMARK  103  A    between atoms: _245  and  _246
REMARK  104  A    between atoms: _245  and  _248
REMARK  105  A    between atoms: _248  and  _249
REMARK  106  A    between atoms: _252  and  _254
REMARK  107  A    between atoms: _254  and  _255
REMARK  108  A    between atoms: _257  and  _259
REMARK  109  A    between atoms: _259  and  _260
REMARK  110  A    between atoms: _259  and  _262
REMARK  111  A    between atoms: _262  and  _263
REMARK  112  A    between atoms: _263  and  _264
REMARK  113  A    between atoms: _264  and  _265
REMARK  114  A    between atoms: _274  and  _276
REMARK  115  A    between atoms: _276  and  _277
REMARK  116  A    between atoms: _276  and  _279
REMARK  117  A    between atoms: _279  and  _280
REMARK  118  A    between atoms: _280  and  _281
REMARK  119  A    between atoms: _281  and  _282
REMARK  120  A    between atoms: _291  and  _293
REMARK  121  A    between atoms: _293  and  _294
REMARK  122  A    between atoms: _293  and  _296
REMARK  123  A    between atoms: _296  and  _297
REMARK  124  A    between atoms: _300  and  _302
REMARK  125  A    between atoms: _302  and  _303
REMARK  126  A    between atoms: _302  and  _305
REMARK  127  A    between atoms: _305  and  _306
REMARK  128  A    between atoms: _309  and  _311
REMARK  129  A    between atoms: _311  and  _312
REMARK  130  A    between atoms: _311  and  _314
REMARK  131  A    between atoms: _314  and  _315
REMARK  132  A    between atoms: _318  and  _320
REMARK  133  A    between atoms: _320  and  _321
REMARK  134  A    between atoms: _320  and  _323
REMARK  135  A    between atoms: _323  and  _324
REMARK  136  A    between atoms: _327  and  _329
REMARK  137  A    between atoms: _329  and  _330
REMARK  138  A    between atoms: _329  and  _332
REMARK  139  A    between atoms: _332  and  _333
REMARK  140  A    between atoms: _336  and  _338
REMARK  141  A    between atoms: _338  and  _339
REMARK  142  A    between atoms: _341  and  _343
REMARK  143  A    between atoms: _343  and  _344
REMARK  144  A    between atoms: _347  and  _349
REMARK  145  A    between atoms: _349  and  _350
REMARK  146  A    between atoms: _349  and  _352
REMARK  147  A    between atoms: _352  and  _353
REMARK  148  A    between atoms: _356  and  _358
REMARK  149  A    between atoms: _358  and  _359
REMARK  150  A    between atoms: _358  and  _361
REMARK  151  A    between atoms: _361  and  _362
REMARK  152  A    between atoms: _365  and  _367
REMARK  153  A    between atoms: _367  and  _368
REMARK  154  A    between atoms: _367  and  _370
REMARK  155  A    between atoms: _370  and  _371
REMARK  156  A    between atoms: _374  and  _376
REMARK  157  A    between atoms: _376  and  _377
REMARK  158  A    between atoms: _376  and  _379
REMARK  159  A    between atoms: _382  and  _384
REMARK  160  A    between atoms: _384  and  _385
REMARK  161  A    between atoms: _384  and  _387
REMARK  162  A    between atoms: _387  and  _388
REMARK  163  A    between atoms: _388  and  _389
REMARK  164  A    between atoms: _389  and  _390
REMARK  165  A    between atoms: _390  and  _391
REMARK  166  A    between atoms: _395  and  _397
REMARK  167  A    between atoms: _397  and  _398
REMARK  168  A    between atoms: _397  and  _400
REMARK  169  A    between atoms: _400  and  _401
REMARK  170  A    between atoms: _401  and  _402
REMARK  171  A    between atoms: _404  and  _406
REMARK  172  A    between atoms: _406  and  _407
REMARK  173  A    between atoms: _406  and  _409
REMARK  174  A    between atoms: _409  and  _410
REMARK  175  A    between atoms: _413  and  _415
REMARK  176  A    between atoms: _415  and  _416
REMARK  177  A    between atoms: _418  and  _420
REMARK  178  A    between atoms: _420  and  _421
REMARK  179  A    between atoms: _423  and  _425
REMARK  180  A    between atoms: _425  and  _426
REMARK  181  A    between atoms: _425  and  _428
REMARK  182  A    between atoms: _428  and  _429
REMARK  183  A    between atoms: _432  and  _434
REMARK  184  A    between atoms: _434  and  _435
REMARK  185  A    between atoms: _437  and  _439
REMARK  186  A    between atoms: _439  and  _440
REMARK  187  A    between atoms: _442  and  _444
REMARK  188  A    between atoms: _444  and  _445
REMARK  189  A    between atoms: _444  and  _447
REMARK  190  A    between atoms: _447  and  _448
REMARK  191  A    between atoms: _454  and  _456
REMARK  192  A    between atoms: _456  and  _457
REMARK  193  A    between atoms: _456  and  _459
REMARK  194  A    between atoms: _459  and  _460
REMARK  195  A    between atoms: _463  and  _465
REMARK  196  A    between atoms: _465  and  _466
REMARK  197  A    between atoms: _465  and  _468
REMARK  198  A    between atoms: _471  and  _473
REMARK  199  A    between atoms: _473  and  _474
REMARK  200  A    between atoms: _473  and  _476
REMARK  201  A    between atoms: _476  and  _477
REMARK  202  A    between atoms: _480  and  _482
REMARK  203  A    between atoms: _482  and  _483
REMARK  204  A    between atoms: _482  and  _485
REMARK  205  A    between atoms: _485  and  _486
REMARK  206  A    between atoms: _490  and  _491
REMARK  207  A    between atoms: _496  and  _498
REMARK  208  A    between atoms: _498  and  _499
REMARK  209  A    between atoms: _498  and  _501
REMARK  210  A    between atoms: _504  and  _506
REMARK  211  A    between atoms: _506  and  _507
REMARK  212  A    between atoms: _506  and  _509
REMARK  213  A    between atoms: _509  and  _510
REMARK  214  A    between atoms: _515  and  _517
REMARK  215  A    between atoms: _517  and  _518
REMARK  216  A    between atoms: _517  and  _520
REMARK  217  A    between atoms: _520  and  _521
REMARK  218  A    between atoms: _524  and  _526
REMARK  219  A    between atoms: _526  and  _527
REMARK  220  A    between atoms: _526  and  _529
REMARK  221  A    between atoms: _529  and  _530
REMARK  222  A    between atoms: _533  and  _535
REMARK  223  A    between atoms: _535  and  _536
REMARK  224  A    between atoms: _538  and  _540
REMARK  225  A    between atoms: _540  and  _541
REMARK  226  A    between atoms: _540  and  _543
REMARK  227  A    between atoms: _543  and  _544
REMARK  228  A    between atoms: _544  and  _545
REMARK  229  A    between atoms: _545  and  _546
REMARK  230  A    between atoms: _555  and  _557
REMARK  231  A    between atoms: _557  and  _558
REMARK  232  A    between atoms: _557  and  _560
REMARK  233  A    between atoms: _560  and  _561
REMARK                            x       y       z     vdW  Elec       q    Type
REMARK                         _______ _______ _______ _____ _____    ______ ____
ROOT
ATOM      1  O   HOH     1      11.078  16.807  14.374  0.00  0.00    +0.000 OA
ENDROOT
TORSDOF 0
REMARK  Name = ../refined-set-2016/1mrw/1mrw_pocket.pdb
REMARK  233 active torsions:
REMARK  status: ('A' for Active; 'I' for Inactive)
REMARK    1  A    between atoms: _1  and  _3
REMARK    2  A    between atoms: _3  and  _4
REMARK    3  A    between atoms: _3  and  _6
REMARK    4  A    between atoms: _6  and  _7
REMARK    5  A    between atoms: _7  and  _8
REMARK    6  A    between atoms: _8  and  _9
REMARK    7  A    between atoms: _18  and  _20
REMARK    8  A    between atoms: _20  and  _21
REMARK    9  A    between atoms: _20  and  _23
REMARK   10  A    between atoms: _23  and  _24
REMARK   11  A    between atoms: _27  and  _29
REMARK   12  A    between atoms: _29  and  _30
REMARK   13  A    between atoms: _29  and  _32
REMARK   14  A    between atoms: _32  and  _33
REMARK   15  A    between atoms: _36  and  _38
REMARK   16  A    between atoms: _38  and  _39
REMARK   17  A    between atoms: _38  and  _41
REMARK   18  A    between atoms: _41  and  _42
REMARK   19  A    between atoms: _45  and  _47
REMARK   20  A    between atoms: _47  and  _48
REMARK   21  A    between atoms: _47  and  _50
REMARK   22  A    between atoms: _50  and  _51
REMARK   23  A    between atoms: _54  and  _56
REMARK   24  A    between atoms: _56  and  _57
REMARK   25  A    between atoms: _56  and  _59
REMARK   26  A    between atoms: _59  and  _60
REMARK   27  A    between atoms: _63  and  _65
REMARK   28  A    between atoms: _65  and  _66
REMARK   29  A    between atoms: _68  and  _70
REMARK   30  A    between atoms: _70  and  _71
REMARK   31  A    between atoms: _74  and  _76
REMARK   32  A    between atoms: _76  and  _77
REMARK   33  A    between atoms: _76  and  _79
REMARK   34  A    between atoms: _79  and  _80
REMARK   35  A    between atoms: _83  and  _85
REMARK   36  A    between atoms: _85  and  _86
REMARK   37  A    between atoms: _85  and  _88
REMARK   38  A    between atoms: _88  and  _89
REMARK   39  A    between atoms: _92  and  _94
REMARK   40  A    between atoms: _94  and  _95
REMARK   41  A    between atoms: _94  and  _97
REMARK   42  A    between atoms: _97  and  _98
REMARK   43  A    between atoms: _101  and  _103
REMARK   44  A    between atoms: _103  and  _104
REMARK   45  A    between atoms: _103  and  _106
REMARK   46  A    between atoms: _109  and  _111
REMARK   47  A    between atoms: _111  and  _112
REMARK   48  A    between atoms: _111  and  _114
REMARK   49  A    between atoms: _114  and  _115
REMARK   50  A    between atoms: _115  and  _116
REMARK   51  A    between atoms: _116  and  _117
REMARK   52  A    between atoms: _117  and  _118
REMARK   53  A    between atoms: _122  and  _124
REMARK   54  A    between atoms: _124  and  _125
REMARK   55  A    between atoms: _124  and  _127
REMARK   56  A    between atoms: _127  and  _128
REMARK   57  A    between atoms: _128  and  _129
REMARK   58  A    between atoms: _131  and  _133
REMARK   59  A    between atoms: _133  and  _134
REMARK   60  A    between atoms: _133  and  _136
REMARK   61  A    between atoms: _136  and  _137
REMARK   62  A    between atoms: _140  and  _142
REMARK   63  A    between atoms: _142  and  _143
REMARK   64  A    between atoms: _145  and  _147
REMARK   65  A    between atoms: _147  and  _148
REMARK   66  A    between atoms: _150  and  _152
REMARK   67  A    between atoms: _152  and  _153
REMARK   68  A    between atoms: _152  and  _155
REMARK   69  A    between atoms: _155  and  _156
REMARK   70  A    between atoms: _159  and  _161
REMARK   71  A    between atoms: _161  and  _162
REMARK   72  A    between atoms: _164  and  _166
REMARK   73  A    between atoms: _166  and  _167
REMARK   74  A    between atoms: _169  and  _171
REMARK   75  A    between atoms: _171  and  _172
REMARK   76  A    between atoms: _171  and  _174
REMARK   77  A    between atoms: _174  and  _175
REMARK   78  A    between atoms: _181  and  _183
REMARK   79  A    between atoms: _183  and  _184
REMARK   80  A    between atoms: _183  and  _186
REMARK   81  A    between atoms: _186  and  _187
REMARK   82  A    between atoms: _190  and  _192
REMARK   83  A    between atoms: _192  and  _193
REMARK   84  A    between atoms: _192  and  _195
REMARK   85  A    between atoms: _195  and  _196
REMARK   86  A    between atoms: _199  and  _201
REMARK   87  A    between atoms: _201  and  _202
REMARK   88  A    between atoms: _201  and  _204
REMARK   89  A    between atoms: _204  and  _205
REMARK   90  A    between atoms: _209  and  _210
REMARK   91  A    between atoms: _215  and  _217
REMARK   92  A    between atoms: _217  and  _218
REMARK   93  A    between atoms: _217  and  _220
REMARK   94  A    between atoms: _223  and  _225
REMARK   95  A    between atoms: _225  and  _226
REMARK   96  A    between atoms: _225  and  _228
REMARK   97  A    between atoms: _228  and  _229
REMARK   98  A    between atoms: _234  and  _236
REMARK   99  A    between atoms: _236  and  _237
REMARK  100  A    between atoms: _236  and  _239
REMARK  101  A    between atoms: _239  and  _240
REMARK  102  A    between atoms: _243  and  _245
REMARK  103  A    between atoms: _245  and  _246
REMARK  104  A    between atoms: _245  and  _248
REMARK  105  A    between atoms: _248  and  _249
REMARK  106  A    between atoms: _252  and  _254
REMARK  107  A    between atoms: _254  and  _255
REMARK  108  A    between atoms: _257  and  _259
REMARK  109  A    between atoms: _259  and  _260
REMARK  110  A    between atoms: _259  and  _262
REMARK  111  A    between atoms: _262  and  _263
REMARK  112  A    between atoms: _263  and  _264
REMARK  113  A    between atoms: _264  and  _265
REMARK  114  A    between atoms: _274  and  _276
REMARK  115  A    between atoms: _276  and  _277
REMARK  116  A    between atoms: _276  and  _279
REMARK  117  A    between atoms: _279  and  _280
REMARK  118  A    between atoms: _280  and  _281
REMARK  119  A    between atoms: _281  and  _282
REMARK  120  A    between atoms: _291  and  _293
REMARK  121  A    between atoms: _293  and  _294
REMARK  122  A    between atoms: _293  and  _296
REMARK  123  A    between atoms: _296  and  _297
REMARK  124  A    between atoms: _300  and  _302
REMARK  125  A    between atoms: _302  and  _303
REMARK  126  A    between atoms: _302  and  _305
REMARK  127  A    between atoms: _305  and  _306
REMARK  128  A    between atoms: _309  and  _311
REMARK  129  A    between atoms: _311  and  _312
REMARK  130  A    between atoms: _311  and  _314
REMARK  131  A    between atoms: _314  and  _315
REMARK  132  A    between atoms: _318  and  _320
REMARK  133  A    between atoms: _320  and  _321
REMARK  134  A    between atoms: _320  and  _323
REMARK  135  A    between atoms: _323  and  _324
REMARK  136  A    between atoms: _327  and  _329
REMARK  137  A    between atoms: _329  and  _330
REMARK  138  A    between atoms: _329  and  _332
REMARK  139  A    between atoms: _332  and  _333
REMARK  140  A    between atoms: _336  and  _338
REMARK  141  A    between atoms: _338  and  _339
REMARK  142  A    between atoms: _341  and  _343
REMARK  143  A    between atoms: _343  and  _344
REMARK  144  A    between atoms: _347  and  _349
REMARK  145  A    between atoms: _349  and  _350
REMARK  146  A    between atoms: _349  and  _352
REMARK  147  A    between atoms: _352  and  _353
REMARK  148  A    between atoms: _356  and  _358
REMARK  149  A    between atoms: _358  and  _359
REMARK  150  A    between atoms: _358  and  _361
REMARK  151  A    between atoms: _361  and  _362
REMARK  152  A    between atoms: _365  and  _367
REMARK  153  A    between atoms: _367  and  _368
REMARK  154  A    between atoms: _367  and  _370
REMARK  155  A    between atoms: _370  and  _371
REMARK  156  A    between atoms: _374  and  _376
REMARK  157  A    between atoms: _376  and  _377
REMARK  158  A    between atoms: _376  and  _379
REMARK  159  A    between atoms: _382  and  _384
REMARK  160  A    between atoms: _384  and  _385
REMARK  161  A    between atoms: _384  and  _387
REMARK  162  A    between atoms: _387  and  _388
REMARK  163  A    between atoms: _388  and  _389
REMARK  164  A    between atoms: _389  and  _390
REMARK  165  A    between atoms: _390  and  _391
REMARK  166  A    between atoms: _395  and  _397
REMARK  167  A    between atoms: _397  and  _398
REMARK  168  A    between atoms: _397  and  _400
REMARK  169  A    between atoms: _400  and  _401
REMARK  170  A    between atoms: _401  and  _402
REMARK  171  A    between atoms: _404  and  _406
REMARK  172  A    between atoms: _406  and  _407
REMARK  173  A    between atoms: _406  and  _409
REMARK  174  A    between atoms: _409  and  _410
REMARK  175  A    between atoms: _413  and  _415
REMARK  176  A    between atoms: _415  and  _416
REMARK  177  A    between atoms: _418  and  _420
REMARK  178  A    between atoms: _420  and  _421
REMARK  179  A    between atoms: _423  and  _425
REMARK  180  A    between atoms: _425  and  _426
REMARK  181  A    between atoms: _425  and  _428
REMARK  182  A    between atoms: _428  and  _429
REMARK  183  A    between atoms: _432  and  _434
REMARK  184  A    between atoms: _434  and  _435
REMARK  185  A    between atoms: _437  and  _439
REMARK  186  A    between atoms: _439  and  _440
REMARK  187  A    between atoms: _442  and  _444
REMARK  188  A    between atoms: _444  and  _445
REMARK  189  A    between atoms: _444  and  _447
REMARK  190  A    between atoms: _447  and  _448
REMARK  191  A    between atoms: _454  and  _456
REMARK  192  A    between atoms: _456  and  _457
REMARK  193  A    between atoms: _456  and  _459
REMARK  194  A    between atoms: _459  and  _460
REMARK  195  A    between atoms: _463  and  _465
REMARK  196  A    between atoms: _465  and  _466
REMARK  197  A    between atoms: _465  and  _468
REMARK  198  A    between atoms: _471  and  _473
REMARK  199  A    between atoms: _473  and  _474
REMARK  200  A    between atoms: _473  and  _476
REMARK  201  A    between atoms: _476  and  _477
REMARK  202  A    between atoms: _480  and  _482
REMARK  203  A    between atoms: _482  and  _483
REMARK  204  A    between atoms: _482  and  _485
REMARK  205  A    between atoms: _485  and  _486
REMARK  206  A    between atoms: _490  and  _491
REMARK  207  A    between atoms: _496  and  _498
REMARK  208  A    between atoms: _498  and  _499
REMARK  209  A    between atoms: _498  and  _501
REMARK  210  A    between atoms: _504  and  _506
REMARK  211  A    between atoms: _506  and  _507
REMARK  212  A    between atoms: _506  and  _509
REMARK  213  A    between atoms: _509  and  _510
REMARK  214  A    between atoms: _515  and  _517
REMARK  215  A    between atoms: _517  and  _518
REMARK  216  A    between atoms: _517  and  _520
REMARK  217  A    between atoms: _520  and  _521
REMARK  218  A    between atoms: _524  and  _526
REMARK  219  A    between atoms: _526  and  _527
REMARK  220  A    between atoms: _526  and  _529
REMARK  221  A    between atoms: _529  and  _530
REMARK  222  A    between atoms: _533  and  _535
REMARK  223  A    between atoms: _535  and  _536
REMARK  224  A    between atoms: _538  and  _540
REMARK  225  A    between atoms: _540  and  _541
REMARK  226  A    between atoms: _540  and  _543
REMARK  227  A    between atoms: _543  and  _544
REMARK  228  A    between atoms: _544  and  _545
REMARK  229  A    between atoms: _545  and  _546
REMARK  230  A    between atoms: _555  and  _557
REMARK  231  A    between atoms: _557  and  _558
REMARK  232  A    between atoms: _557  and  _560
REMARK  233  A    between atoms: _560  and  _561
REMARK                            x       y       z     vdW  Elec       q    Type
REMARK                         _______ _______ _______ _____ _____    ______ ____
ROOT
ATOM      1  O   HOH     1      23.272  27.899  26.059  0.00  0.00    +0.000 OA
ENDROOT
TORSDOF 0
REMARK  Name = ../refined-set-2016/1mrw/1mrw_pocket.pdb
REMARK  233 active torsions:
REMARK  status: ('A' for Active; 'I' for Inactive)
REMARK    1  A    between atoms: _1  and  _3
REMARK    2  A    between atoms: _3  and  _4
REMARK    3  A    between atoms: _3  and  _6
REMARK    4  A    between atoms: _6  and  _7
REMARK    5  A    between atoms: _7  and  _8
REMARK    6  A    between atoms: _8  and  _9
REMARK    7  A    between atoms: _18  and  _20
REMARK    8  A    between atoms: _20  and  _21
REMARK    9  A    between atoms: _20  and  _23
REMARK   10  A    between atoms: _23  and  _24
REMARK   11  A    between atoms: _27  and  _29
REMARK   12  A    between atoms: _29  and  _30
REMARK   13  A    between atoms: _29  and  _32
REMARK   14  A    between atoms: _32  and  _33
REMARK   15  A    between atoms: _36  and  _38
REMARK   16  A    between atoms: _38  and  _39
REMARK   17  A    between atoms: _38  and  _41
REMARK   18  A    between atoms: _41  and  _42
REMARK   19  A    between atoms: _45  and  _47
REMARK   20  A    between atoms: _47  and  _48
REMARK   21  A    between atoms: _47  and  _50
REMARK   22  A    between atoms: _50  and  _51
REMARK   23  A    between atoms: _54  and  _56
REMARK   24  A    between atoms: _56  and  _57
REMARK   25  A    between atoms: _56  and  _59
REMARK   26  A    between atoms: _59  and  _60
REMARK   27  A    between atoms: _63  and  _65
REMARK   28  A    between atoms: _65  and  _66
REMARK   29  A    between atoms: _68  and  _70
REMARK   30  A    between atoms: _70  and  _71
REMARK   31  A    between atoms: _74  and  _76
REMARK   32  A    between atoms: _76  and  _77
REMARK   33  A    between atoms: _76  and  _79
REMARK   34  A    between atoms: _79  and  _80
REMARK   35  A    between atoms: _83  and  _85
REMARK   36  A    between atoms: _85  and  _86
REMARK   37  A    between atoms: _85  and  _88
REMARK   38  A    between atoms: _88  and  _89
REMARK   39  A    between atoms: _92  and  _94
REMARK   40  A    between atoms: _94  and  _95
REMARK   41  A    between atoms: _94  and  _97
REMARK   42  A    between atoms: _97  and  _98
REMARK   43  A    between atoms: _101  and  _103
REMARK   44  A    between atoms: _103  and  _104
REMARK   45  A    between atoms: _103  and  _106
REMARK   46  A    between atoms: _109  and  _111
REMARK   47  A    between atoms: _111  and  _112
REMARK   48  A    between atoms: _111  and  _114
REMARK   49  A    between atoms: _114  and  _115
REMARK   50  A    between atoms: _115  and  _116
REMARK   51  A    between atoms: _116  and  _117
REMARK   52  A    between atoms: _117  and  _118
REMARK   53  A    between atoms: _122  and  _124
REMARK   54  A    between atoms: _124  and  _125
REMARK   55  A    between atoms: _124  and  _127
REMARK   56  A    between atoms: _127  and  _128
REMARK   57  A    between atoms: _128  and  _129
REMARK   58  A    between atoms: _131  and  _133
REMARK   59  A    between atoms: _133  and  _134
REMARK   60  A    between atoms: _133  and  _136
REMARK   61  A    between atoms: _136  and  _137
REMARK   62  A    between atoms: _140  and  _142
REMARK   63  A    between atoms: _142  and  _143
REMARK   64  A    between atoms: _145  and  _147
REMARK   65  A    between atoms: _147  and  _148
REMARK   66  A    between atoms: _150  and  _152
REMARK   67  A    between atoms: _152  and  _153
REMARK   68  A    between atoms: _152  and  _155
REMARK   69  A    between atoms: _155  and  _156
REMARK   70  A    between atoms: _159  and  _161
REMARK   71  A    between atoms: _161  and  _162
REMARK   72  A    between atoms: _164  and  _166
REMARK   73  A    between atoms: _166  and  _167
REMARK   74  A    between atoms: _169  and  _171
REMARK   75  A    between atoms: _171  and  _172
REMARK   76  A    between atoms: _171  and  _174
REMARK   77  A    between atoms: _174  and  _175
REMARK   78  A    between atoms: _181  and  _183
REMARK   79  A    between atoms: _183  and  _184
REMARK   80  A    between atoms: _183  and  _186
REMARK   81  A    between atoms: _186  and  _187
REMARK   82  A    between atoms: _190  and  _192
REMARK   83  A    between atoms: _192  and  _193
REMARK   84  A    between atoms: _192  and  _195
REMARK   85  A    between atoms: _195  and  _196
REMARK   86  A    between atoms: _199  and  _201
REMARK   87  A    between atoms: _201  and  _202
REMARK   88  A    between atoms: _201  and  _204
REMARK   89  A    between atoms: _204  and  _205
REMARK   90  A    between atoms: _209  and  _210
REMARK   91  A    between atoms: _215  and  _217
REMARK   92  A    between atoms: _217  and  _218
REMARK   93  A    between atoms: _217  and  _220
REMARK   94  A    between atoms: _223  and  _225
REMARK   95  A    between atoms: _225  and  _226
REMARK   96  A    between atoms: _225  and  _228
REMARK   97  A    between atoms: _228  and  _229
REMARK   98  A    between atoms: _234  and  _236
REMARK   99  A    between atoms: _236  and  _237
REMARK  100  A    between atoms: _236  and  _239
REMARK  101  A    between atoms: _239  and  _240
REMARK  102  A    between atoms: _243  and  _245
REMARK  103  A    between atoms: _245  and  _246
REMARK  104  A    between atoms: _245  and  _248
REMARK  105  A    between atoms: _248  and  _249
REMARK  106  A    between atoms: _252  and  _254
REMARK  107  A    between atoms: _254  and  _255
REMARK  108  A    between atoms: _257  and  _259
REMARK  109  A    between atoms: _259  and  _260
REMARK  110  A    between atoms: _259  and  _262
REMARK  111  A    between atoms: _262  and  _263
REMARK  112  A    between atoms: _263  and  _264
REMARK  113  A    between atoms: _264  and  _265
REMARK  114  A    between atoms: _274  and  _276
REMARK  115  A    between atoms: _276  and  _277
REMARK  116  A    between atoms: _276  and  _279
REMARK  117  A    between atoms: _279  and  _280
REMARK  118  A    between atoms: _280  and  _281
REMARK  119  A    between atoms: _281  and  _282
REMARK  120  A    between atoms: _291  and  _293
REMARK  121  A    between atoms: _293  and  _294
REMARK  122  A    between atoms: _293  and  _296
REMARK  123  A    between atoms: _296  and  _297
REMARK  124  A    between atoms: _300  and  _302
REMARK  125  A    between atoms: _302  and  _303
REMARK  126  A    between atoms: _302  and  _305
REMARK  127  A    between atoms: _305  and  _306
REMARK  128  A    between atoms: _309  and  _311
REMARK  129  A    between atoms: _311  and  _312
REMARK  130  A    between atoms: _311  and  _314
REMARK  131  A    between atoms: _314  and  _315
REMARK  132  A    between atoms: _318  and  _320
REMARK  133  A    between atoms: _320  and  _321
REMARK  134  A    between atoms: _320  and  _323
REMARK  135  A    between atoms: _323  and  _324
REMARK  136  A    between atoms: _327  and  _329
REMARK  137  A    between atoms: _329  and  _330
REMARK  138  A    between atoms: _329  and  _332
REMARK  139  A    between atoms: _332  and  _333
REMARK  140  A    between atoms: _336  and  _338
REMARK  141  A    between atoms: _338  and  _339
REMARK  142  A    between atoms: _341  and  _343
REMARK  143  A    between atoms: _343  and  _344
REMARK  144  A    between atoms: _347  and  _349
REMARK  145  A    between atoms: _349  and  _350
REMARK  146  A    between atoms: _349  and  _352
REMARK  147  A    between atoms: _352  and  _353
REMARK  148  A    between atoms: _356  and  _358
REMARK  149  A    between atoms: _358  and  _359
REMARK  150  A    between atoms: _358  and  _361
REMARK  151  A    between atoms: _361  and  _362
REMARK  152  A    between atoms: _365  and  _367
REMARK  153  A    between atoms: _367  and  _368
REMARK  154  A    between atoms: _367  and  _370
REMARK  155  A    between atoms: _370  and  _371
REMARK  156  A    between atoms: _374  and  _376
REMARK  157  A    between atoms: _376  and  _377
REMARK  158  A    between atoms: _376  and  _379
REMARK  159  A    between atoms: _382  and  _384
REMARK  160  A    between atoms: _384  and  _385
REMARK  161  A    between atoms: _384  and  _387
REMARK  162  A    between atoms: _387  and  _388
REMARK  163  A    between atoms: _388  and  _389
REMARK  164  A    between atoms: _389  and  _390
REMARK  165  A    between atoms: _390  and  _391
REMARK  166  A    between atoms: _395  and  _397
REMARK  167  A    between atoms: _397  and  _398
REMARK  168  A    between atoms: _397  and  _400
REMARK  169  A    between atoms: _400  and  _401
REMARK  170  A    between atoms: _401  and  _402
REMARK  171  A    between atoms: _404  and  _406
REMARK  172  A    between atoms: _406  and  _407
REMARK  173  A    between atoms: _406  and  _409
REMARK  174  A    between atoms: _409  and  _410
REMARK  175  A    between atoms: _413  and  _415
REMARK  176  A    between atoms: _415  and  _416
REMARK  177  A    between atoms: _418  and  _420
REMARK  178  A    between atoms: _420  and  _421
REMARK  179  A    between atoms: _423  and  _425
REMARK  180  A    between atoms: _425  and  _426
REMARK  181  A    between atoms: _425  and  _428
REMARK  182  A    between atoms: _428  and  _429
REMARK  183  A    between atoms: _432  and  _434
REMARK  184  A    between atoms: _434  and  _435
REMARK  185  A    between atoms: _437  and  _439
REMARK  186  A    between atoms: _439  and  _440
REMARK  187  A    between atoms: _442  and  _444
REMARK  188  A    between atoms: _444  and  _445
REMARK  189  A    between atoms: _444  and  _447
REMARK  190  A    between atoms: _447  and  _448
REMARK  191  A    between atoms: _454  and  _456
REMARK  192  A    between atoms: _456  and  _457
REMARK  193  A    between atoms: _456  and  _459
REMARK  194  A    between atoms: _459  and  _460
REMARK  195  A    between atoms: _463  and  _465
REMARK  196  A    between atoms: _465  and  _466
REMARK  197  A    between atoms: _465  and  _468
REMARK  198  A    between atoms: _471  and  _473
REMARK  199  A    between atoms: _473  and  _474
REMARK  200  A    between atoms: _473  and  _476
REMARK  201  A    between atoms: _476  and  _477
REMARK  202  A    between atoms: _480  and  _482
REMARK  203  A    between atoms: _482  and  _483
REMARK  204  A    between atoms: _482  and  _485
REMARK  205  A    between atoms: _485  and  _486
REMARK  206  A    between atoms: _490  and  _491
REMARK  207  A    between atoms: _496  and  _498
REMARK  208  A    between atoms: _498  and  _499
REMARK  209  A    between atoms: _498  and  _501
REMARK  210  A    between atoms: _504  and  _506
REMARK  211  A    between atoms: _506  and  _507
REMARK  212  A    between atoms: _506  and  _509
REMARK  213  A    between atoms: _509  and  _510
REMARK  214  A    between atoms: _515  and  _517
REMARK  215  A    between atoms: _517  and  _518
REMARK  216  A    between atoms: _517  and  _520
REMARK  217  A    between atoms: _520  and  _521
REMARK  218  A    between atoms: _524  and  _526
REMARK  219  A    between atoms: _526  and  _527
REMARK  220  A    between atoms: _526  and  _529
REMARK  221  A    between atoms: _529  and  _530
REMARK  222  A    between atoms: _533  and  _535
REMARK  223  A    between atoms: _535  and  _536
REMARK  224  A    between atoms: _538  and  _540
REMARK  225  A    between atoms: _540  and  _541
REMARK  226  A    between atoms: _540  and  _543
REMARK  227  A    between atoms: _543  and  _544
REMARK  228  A    between atoms: _544  and  _545
REMARK  229  A    between atoms: _545  and  _546
REMARK  230  A    between atoms: _555  and  _557
REMARK  231  A    between atoms: _557  and  _558
REMARK  232  A    between atoms: _557  and  _560
REMARK  233  A    between atoms: _560  and  _561
REMARK                            x       y       z     vdW  Elec       q    Type
REMARK                         _______ _______ _______ _____ _____    ______ ____
ROOT
ATOM      1  O   HOH     1      24.102  25.326  22.008  0.00  0.00    +0.000 OA
ENDROOT
TORSDOF 0
REMARK  Name = ../refined-set-2016/1mrw/1mrw_pocket.pdb
REMARK  233 active torsions:
REMARK  status: ('A' for Active; 'I' for Inactive)
REMARK    1  A    between atoms: _1  and  _3
REMARK    2  A    between atoms: _3  and  _4
REMARK    3  A    between atoms: _3  and  _6
REMARK    4  A    between atoms: _6  and  _7
REMARK    5  A    between atoms: _7  and  _8
REMARK    6  A    between atoms: _8  and  _9
REMARK    7  A    between atoms: _18  and  _20
REMARK    8  A    between atoms: _20  and  _21
REMARK    9  A    between atoms: _20  and  _23
REMARK   10  A    between atoms: _23  and  _24
REMARK   11  A    between atoms: _27  and  _29
REMARK   12  A    between atoms: _29  and  _30
REMARK   13  A    between atoms: _29  and  _32
REMARK   14  A    between atoms: _32  and  _33
REMARK   15  A    between atoms: _36  and  _38
REMARK   16  A    between atoms: _38  and  _39
REMARK   17  A    between atoms: _38  and  _41
REMARK   18  A    between atoms: _41  and  _42
REMARK   19  A    between atoms: _45  and  _47
REMARK   20  A    between atoms: _47  and  _48
REMARK   21  A    between atoms: _47  and  _50
REMARK   22  A    between atoms: _50  and  _51
REMARK   23  A    between atoms: _54  and  _56
REMARK   24  A    between atoms: _56  and  _57
REMARK   25  A    between atoms: _56  and  _59
REMARK   26  A    between atoms: _59  and  _60
REMARK   27  A    between atoms: _63  and  _65
REMARK   28  A    between atoms: _65  and  _66
REMARK   29  A    between atoms: _68  and  _70
REMARK   30  A    between atoms: _70  and  _71
REMARK   31  A    between atoms: _74  and  _76
REMARK   32  A    between atoms: _76  and  _77
REMARK   33  A    between atoms: _76  and  _79
REMARK   34  A    between atoms: _79  and  _80
REMARK   35  A    between atoms: _83  and  _85
REMARK   36  A    between atoms: _85  and  _86
REMARK   37  A    between atoms: _85  and  _88
REMARK   38  A    between atoms: _88  and  _89
REMARK   39  A    between atoms: _92  and  _94
REMARK   40  A    between atoms: _94  and  _95
REMARK   41  A    between atoms: _94  and  _97
REMARK   42  A    between atoms: _97  and  _98
REMARK   43  A    between atoms: _101  and  _103
REMARK   44  A    between atoms: _103  and  _104
REMARK   45  A    between atoms: _103  and  _106
REMARK   46  A    between atoms: _109  and  _111
REMARK   47  A    between atoms: _111  and  _112
REMARK   48  A    between atoms: _111  and  _114
REMARK   49  A    between atoms: _114  and  _115
REMARK   50  A    between atoms: _115  and  _116
REMARK   51  A    between atoms: _116  and  _117
REMARK   52  A    between atoms: _117  and  _118
REMARK   53  A    between atoms: _122  and  _124
REMARK   54  A    between atoms: _124  and  _125
REMARK   55  A    between atoms: _124  and  _127
REMARK   56  A    between atoms: _127  and  _128
REMARK   57  A    between atoms: _128  and  _129
REMARK   58  A    between atoms: _131  and  _133
REMARK   59  A    between atoms: _133  and  _134
REMARK   60  A    between atoms: _133  and  _136
REMARK   61  A    between atoms: _136  and  _137
REMARK   62  A    between atoms: _140  and  _142
REMARK   63  A    between atoms: _142  and  _143
REMARK   64  A    between atoms: _145  and  _147
REMARK   65  A    between atoms: _147  and  _148
REMARK   66  A    between atoms: _150  and  _152
REMARK   67  A    between atoms: _152  and  _153
REMARK   68  A    between atoms: _152  and  _155
REMARK   69  A    between atoms: _155  and  _156
REMARK   70  A    between atoms: _159  and  _161
REMARK   71  A    between atoms: _161  and  _162
REMARK   72  A    between atoms: _164  and  _166
REMARK   73  A    between atoms: _166  and  _167
REMARK   74  A    between atoms: _169  and  _171
REMARK   75  A    between atoms: _171  and  _172
REMARK   76  A    between atoms: _171  and  _174
REMARK   77  A    between atoms: _174  and  _175
REMARK   78  A    between atoms: _181  and  _183
REMARK   79  A    between atoms: _183  and  _184
REMARK   80  A    between atoms: _183  and  _186
REMARK   81  A    between atoms: _186  and  _187
REMARK   82  A    between atoms: _190  and  _192
REMARK   83  A    between atoms: _192  and  _193
REMARK   84  A    between atoms: _192  and  _195
REMARK   85  A    between atoms: _195  and  _196
REMARK   86  A    between atoms: _199  and  _201
REMARK   87  A    between atoms: _201  and  _202
REMARK   88  A    between atoms: _201  and  _204
REMARK   89  A    between atoms: _204  and  _205
REMARK   90  A    between atoms: _209  and  _210
REMARK   91  A    between atoms: _215  and  _217
REMARK   92  A    between atoms: _217  and  _218
REMARK   93  A    between atoms: _217  and  _220
REMARK   94  A    between atoms: _223  and  _225
REMARK   95  A    between atoms: _225  and  _226
REMARK   96  A    between atoms: _225  and  _228
REMARK   97  A    between atoms: _228  and  _229
REMARK   98  A    between atoms: _234  and  _236
REMARK   99  A    between atoms: _236  and  _237
REMARK  100  A    between atoms: _236  and  _239
REMARK  101  A    between atoms: _239  and  _240
REMARK  102  A    between atoms: _243  and  _245
REMARK  103  A    between atoms: _245  and  _246
REMARK  104  A    between atoms: _245  and  _248
REMARK  105  A    between atoms: _248  and  _249
REMARK  106  A    between atoms: _252  and  _254
REMARK  107  A    between atoms: _254  and  _255
REMARK  108  A    between atoms: _257  and  _259
REMARK  109  A    between atoms: _259  and  _260
REMARK  110  A    between atoms: _259  and  _262
REMARK  111  A    between atoms: _262  and  _263
REMARK  112  A    between atoms: _263  and  _264
REMARK  113  A    between atoms: _264  and  _265
REMARK  114  A    between atoms: _274  and  _276
REMARK  115  A    between atoms: _276  and  _277
REMARK  116  A    between atoms: _276  and  _279
REMARK  117  A    between atoms: _279  and  _280
REMARK  118  A    between atoms: _280  and  _281
REMARK  119  A    between atoms: _281  and  _282
REMARK  120  A    between atoms: _291  and  _293
REMARK  121  A    between atoms: _293  and  _294
REMARK  122  A    between atoms: _293  and  _296
REMARK  123  A    between atoms: _296  and  _297
REMARK  124  A    between atoms: _300  and  _302
REMARK  125  A    between atoms: _302  and  _303
REMARK  126  A    between atoms: _302  and  _305
REMARK  127  A    between atoms: _305  and  _306
REMARK  128  A    between atoms: _309  and  _311
REMARK  129  A    between atoms: _311  and  _312
REMARK  130  A    between atoms: _311  and  _314
REMARK  131  A    between atoms: _314  and  _315
REMARK  132  A    between atoms: _318  and  _320
REMARK  133  A    between atoms: _320  and  _321
REMARK  134  A    between atoms: _320  and  _323
REMARK  135  A    between atoms: _323  and  _324
REMARK  136  A    between atoms: _327  and  _329
REMARK  137  A    between atoms: _329  and  _330
REMARK  138  A    between atoms: _329  and  _332
REMARK  139  A    between atoms: _332  and  _333
REMARK  140  A    between atoms: _336  and  _338
REMARK  141  A    between atoms: _338  and  _339
REMARK  142  A    between atoms: _341  and  _343
REMARK  143  A    between atoms: _343  and  _344
REMARK  144  A    between atoms: _347  and  _349
REMARK  145  A    between atoms: _349  and  _350
REMARK  146  A    between atoms: _349  and  _352
REMARK  147  A    between atoms: _352  and  _353
REMARK  148  A    between atoms: _356  and  _358
REMARK  149  A    between atoms: _358  and  _359
REMARK  150  A    between atoms: _358  and  _361
REMARK  151  A    between atoms: _361  and  _362
REMARK  152  A    between atoms: _365  and  _367
REMARK  153  A    between atoms: _367  and  _368
REMARK  154  A    between atoms: _367  and  _370
REMARK  155  A    between atoms: _370  and  _371
REMARK  156  A    between atoms: _374  and  _376
REMARK  157  A    between atoms: _376  and  _377
REMARK  158  A    between atoms: _376  and  _379
REMARK  159  A    between atoms: _382  and  _384
REMARK  160  A    between atoms: _384  and  _385
REMARK  161  A    between atoms: _384  and  _387
REMARK  162  A    between atoms: _387  and  _388
REMARK  163  A    between atoms: _388  and  _389
REMARK  164  A    between atoms: _389  and  _390
REMARK  165  A    between atoms: _390  and  _391
REMARK  166  A    between atoms: _395  and  _397
REMARK  167  A    between atoms: _397  and  _398
REMARK  168  A    between atoms: _397  and  _400
REMARK  169  A    between atoms: _400  and  _401
REMARK  170  A    between atoms: _401  and  _402
REMARK  171  A    between atoms: _404  and  _406
REMARK  172  A    between atoms: _406  and  _407
REMARK  173  A    between atoms: _406  and  _409
REMARK  174  A    between atoms: _409  and  _410
REMARK  175  A    between atoms: _413  and  _415
REMARK  176  A    between atoms: _415  and  _416
REMARK  177  A    between atoms: _418  and  _420
REMARK  178  A    between atoms: _420  and  _421
REMARK  179  A    between atoms: _423  and  _425
REMARK  180  A    between atoms: _425  and  _426
REMARK  181  A    between atoms: _425  and  _428
REMARK  182  A    between atoms: _428  and  _429
REMARK  183  A    between atoms: _432  and  _434
REMARK  184  A    between atoms: _434  and  _435
REMARK  185  A    between atoms: _437  and  _439
REMARK  186  A    between atoms: _439  and  _440
REMARK  187  A    between atoms: _442  and  _444
REMARK  188  A    between atoms: _444  and  _445
REMARK  189  A    between atoms: _444  and  _447
REMARK  190  A    between atoms: _447  and  _448
REMARK  191  A    between atoms: _454  and  _456
REMARK  192  A    between atoms: _456  and  _457
REMARK  193  A    between atoms: _456  and  _459
REMARK  194  A    between atoms: _459  and  _460
REMARK  195  A    between atoms: _463  and  _465
REMARK  196  A    between atoms: _465  and  _466
REMARK  197  A    between atoms: _465  and  _468
REMARK  198  A    between atoms: _471  and  _473
REMARK  199  A    between atoms: _473  and  _474
REMARK  200  A    between atoms: _473  and  _476
REMARK  201  A    between atoms: _476  and  _477
REMARK  202  A    between atoms: _480  and  _482
REMARK  203  A    between atoms: _482  and  _483
REMARK  204  A    between atoms: _482  and  _485
REMARK  205  A    between atoms: _485  and  _486
REMARK  206  A    between atoms: _490  and  _491
REMARK  207  A    between atoms: _496  and  _498
REMARK  208  A    between atoms: _498  and  _499
REMARK  209  A    between atoms: _498  and  _501
REMARK  210  A    between atoms: _504  and  _506
REMARK  211  A    between atoms: _506  and  _507
REMARK  212  A    between atoms: _506  and  _509
REMARK  213  A    between atoms: _509  and  _510
REMARK  214  A    between atoms: _515  and  _517
REMARK  215  A    between atoms: _517  and  _518
REMARK  216  A    between atoms: _517  and  _520
REMARK  217  A    between atoms: _520  and  _521
REMARK  218  A    between atoms: _524  and  _526
REMARK  219  A    between atoms: _526  and  _527
REMARK  220  A    between atoms: _526  and  _529
REMARK  221  A    between atoms: _529  and  _530
REMARK  222  A    between atoms: _533  and  _535
REMARK  223  A    between atoms: _535  and  _536
REMARK  224  A    between atoms: _538  and  _540
REMARK  225  A    between atoms: _540  and  _541
REMARK  226  A    between atoms: _540  and  _543
REMARK  227  A    between atoms: _543  and  _544
REMARK  228  A    between atoms: _544  and  _545
REMARK  229  A    between atoms: _545  and  _546
REMARK  230  A    between atoms: _555  and  _557
REMARK  231  A    between atoms: _557  and  _558
REMARK  232  A    between atoms: _557  and  _560
REMARK  233  A    between atoms: _560  and  _561
REMARK                            x       y       z     vdW  Elec       q    Type
REMARK                         _______ _______ _______ _____ _____    ______ ____
ROOT
ATOM      1  O   HOH     1      12.693  16.614  11.843  0.00  0.00    +0.000 OA
ENDROOT
TORSDOF 0
REMARK  Name = ../refined-set-2016/1mrw/1mrw_pocket.pdb
REMARK  233 active torsions:
REMARK  status: ('A' for Active; 'I' for Inactive)
REMARK    1  A    between atoms: _1  and  _3
REMARK    2  A    between atoms: _3  and  _4
REMARK    3  A    between atoms: _3  and  _6
REMARK    4  A    between atoms: _6  and  _7
REMARK    5  A    between atoms: _7  and  _8
REMARK    6  A    between atoms: _8  and  _9
REMARK    7  A    between atoms: _18  and  _20
REMARK    8  A    between atoms: _20  and  _21
REMARK    9  A    between atoms: _20  and  _23
REMARK   10  A    between atoms: _23  and  _24
REMARK   11  A    between atoms: _27  and  _29
REMARK   12  A    between atoms: _29  and  _30
REMARK   13  A    between atoms: _29  and  _32
REMARK   14  A    between atoms: _32  and  _33
REMARK   15  A    between atoms: _36  and  _38
REMARK   16  A    between atoms: _38  and  _39
REMARK   17  A    between atoms: _38  and  _41
REMARK   18  A    between atoms: _41  and  _42
REMARK   19  A    between atoms: _45  and  _47
REMARK   20  A    between atoms: _47  and  _48
REMARK   21  A    between atoms: _47  and  _50
REMARK   22  A    between atoms: _50  and  _51
REMARK   23  A    between atoms: _54  and  _56
REMARK   24  A    between atoms: _56  and  _57
REMARK   25  A    between atoms: _56  and  _59
REMARK   26  A    between atoms: _59  and  _60
REMARK   27  A    between atoms: _63  and  _65
REMARK   28  A    between atoms: _65  and  _66
REMARK   29  A    between atoms: _68  and  _70
REMARK   30  A    between atoms: _70  and  _71
REMARK   31  A    between atoms: _74  and  _76
REMARK   32  A    between atoms: _76  and  _77
REMARK   33  A    between atoms: _76  and  _79
REMARK   34  A    between atoms: _79  and  _80
REMARK   35  A    between atoms: _83  and  _85
REMARK   36  A    between atoms: _85  and  _86
REMARK   37  A    between atoms: _85  and  _88
REMARK   38  A    between atoms: _88  and  _89
REMARK   39  A    between atoms: _92  and  _94
REMARK   40  A    between atoms: _94  and  _95
REMARK   41  A    between atoms: _94  and  _97
REMARK   42  A    between atoms: _97  and  _98
REMARK   43  A    between atoms: _101  and  _103
REMARK   44  A    between atoms: _103  and  _104
REMARK   45  A    between atoms: _103  and  _106
REMARK   46  A    between atoms: _109  and  _111
REMARK   47  A    between atoms: _111  and  _112
REMARK   48  A    between atoms: _111  and  _114
REMARK   49  A    between atoms: _114  and  _115
REMARK   50  A    between atoms: _115  and  _116
REMARK   51  A    between atoms: _116  and  _117
REMARK   52  A    between atoms: _117  and  _118
REMARK   53  A    between atoms: _122  and  _124
REMARK   54  A    between atoms: _124  and  _125
REMARK   55  A    between atoms: _124  and  _127
REMARK   56  A    between atoms: _127  and  _128
REMARK   57  A    between atoms: _128  and  _129
REMARK   58  A    between atoms: _131  and  _133
REMARK   59  A    between atoms: _133  and  _134
REMARK   60  A    between atoms: _133  and  _136
REMARK   61  A    between atoms: _136  and  _137
REMARK   62  A    between atoms: _140  and  _142
REMARK   63  A    between atoms: _142  and  _143
REMARK   64  A    between atoms: _145  and  _147
REMARK   65  A    between atoms: _147  and  _148
REMARK   66  A    between atoms: _150  and  _152
REMARK   67  A    between atoms: _152  and  _153
REMARK   68  A    between atoms: _152  and  _155
REMARK   69  A    between atoms: _155  and  _156
REMARK   70  A    between atoms: _159  and  _161
REMARK   71  A    between atoms: _161  and  _162
REMARK   72  A    between atoms: _164  and  _166
REMARK   73  A    between atoms: _166  and  _167
REMARK   74  A    between atoms: _169  and  _171
REMARK   75  A    between atoms: _171  and  _172
REMARK   76  A    between atoms: _171  and  _174
REMARK   77  A    between atoms: _174  and  _175
REMARK   78  A    between atoms: _181  and  _183
REMARK   79  A    between atoms: _183  and  _184
REMARK   80  A    between atoms: _183  and  _186
REMARK   81  A    between atoms: _186  and  _187
REMARK   82  A    between atoms: _190  and  _192
REMARK   83  A    between atoms: _192  and  _193
REMARK   84  A    between atoms: _192  and  _195
REMARK   85  A    between atoms: _195  and  _196
REMARK   86  A    between atoms: _199  and  _201
REMARK   87  A    between atoms: _201  and  _202
REMARK   88  A    between atoms: _201  and  _204
REMARK   89  A    between atoms: _204  and  _205
REMARK   90  A    between atoms: _209  and  _210
REMARK   91  A    between atoms: _215  and  _217
REMARK   92  A    between atoms: _217  and  _218
REMARK   93  A    between atoms: _217  and  _220
REMARK   94  A    between atoms: _223  and  _225
REMARK   95  A    between atoms: _225  and  _226
REMARK   96  A    between atoms: _225  and  _228
REMARK   97  A    between atoms: _228  and  _229
REMARK   98  A    between atoms: _234  and  _236
REMARK   99  A    between atoms: _236  and  _237
REMARK  100  A    between atoms: _236  and  _239
REMARK  101  A    between atoms: _239  and  _240
REMARK  102  A    between atoms: _243  and  _245
REMARK  103  A    between atoms: _245  and  _246
REMARK  104  A    between atoms: _245  and  _248
REMARK  105  A    between atoms: _248  and  _249
REMARK  106  A    between atoms: _252  and  _254
REMARK  107  A    between atoms: _254  and  _255
REMARK  108  A    between atoms: _257  and  _259
REMARK  109  A    between atoms: _259  and  _260
REMARK  110  A    between atoms: _259  and  _262
REMARK  111  A    between atoms: _262  and  _263
REMARK  112  A    between atoms: _263  and  _264
REMARK  113  A    between atoms: _264  and  _265
REMARK  114  A    between atoms: _274  and  _276
REMARK  115  A    between atoms: _276  and  _277
REMARK  116  A    between atoms: _276  and  _279
REMARK  117  A    between atoms: _279  and  _280
REMARK  118  A    between atoms: _280  and  _281
REMARK  119  A    between atoms: _281  and  _282
REMARK  120  A    between atoms: _291  and  _293
REMARK  121  A    between atoms: _293  and  _294
REMARK  122  A    between atoms: _293  and  _296
REMARK  123  A    between atoms: _296  and  _297
REMARK  124  A    between atoms: _300  and  _302
REMARK  125  A    between atoms: _302  and  _303
REMARK  126  A    between atoms: _302  and  _305
REMARK  127  A    between atoms: _305  and  _306
REMARK  128  A    between atoms: _309  and  _311
REMARK  129  A    between atoms: _311  and  _312
REMARK  130  A    between atoms: _311  and  _314
REMARK  131  A    between atoms: _314  and  _315
REMARK  132  A    between atoms: _318  and  _320
REMARK  133  A    between atoms: _320  and  _321
REMARK  134  A    between atoms: _320  and  _323
REMARK  135  A    between atoms: _323  and  _324
REMARK  136  A    between atoms: _327  and  _329
REMARK  137  A    between atoms: _329  and  _330
REMARK  138  A    between atoms: _329  and  _332
REMARK  139  A    between atoms: _332  and  _333
REMARK  140  A    between atoms: _336  and  _338
REMARK  141  A    between atoms: _338  and  _339
REMARK  142  A    between atoms: _341  and  _343
REMARK  143  A    between atoms: _343  and  _344
REMARK  144  A    between atoms: _347  and  _349
REMARK  145  A    between atoms: _349  and  _350
REMARK  146  A    between atoms: _349  and  _352
REMARK  147  A    between atoms: _352  and  _353
REMARK  148  A    between atoms: _356  and  _358
REMARK  149  A    between atoms: _358  and  _359
REMARK  150  A    between atoms: _358  and  _361
REMARK  151  A    between atoms: _361  and  _362
REMARK  152  A    between atoms: _365  and  _367
REMARK  153  A    between atoms: _367  and  _368
REMARK  154  A    between atoms: _367  and  _370
REMARK  155  A    between atoms: _370  and  _371
REMARK  156  A    between atoms: _374  and  _376
REMARK  157  A    between atoms: _376  and  _377
REMARK  158  A    between atoms: _376  and  _379
REMARK  159  A    between atoms: _382  and  _384
REMARK  160  A    between atoms: _384  and  _385
REMARK  161  A    between atoms: _384  and  _387
REMARK  162  A    between atoms: _387  and  _388
REMARK  163  A    between atoms: _388  and  _389
REMARK  164  A    between atoms: _389  and  _390
REMARK  165  A    between atoms: _390  and  _391
REMARK  166  A    between atoms: _395  and  _397
REMARK  167  A    between atoms: _397  and  _398
REMARK  168  A    between atoms: _397  and  _400
REMARK  169  A    between atoms: _400  and  _401
REMARK  170  A    between atoms: _401  and  _402
REMARK  171  A    between atoms: _404  and  _406
REMARK  172  A    between atoms: _406  and  _407
REMARK  173  A    between atoms: _406  and  _409
REMARK  174  A    between atoms: _409  and  _410
REMARK  175  A    between atoms: _413  and  _415
REMARK  176  A    between atoms: _415  and  _416
REMARK  177  A    between atoms: _418  and  _420
REMARK  178  A    between atoms: _420  and  _421
REMARK  179  A    between atoms: _423  and  _425
REMARK  180  A    between atoms: _425  and  _426
REMARK  181  A    between atoms: _425  and  _428
REMARK  182  A    between atoms: _428  and  _429
REMARK  183  A    between atoms: _432  and  _434
REMARK  184  A    between atoms: _434  and  _435
REMARK  185  A    between atoms: _437  and  _439
REMARK  186  A    between atoms: _439  and  _440
REMARK  187  A    between atoms: _442  and  _444
REMARK  188  A    between atoms: _444  and  _445
REMARK  189  A    between atoms: _444  and  _447
REMARK  190  A    between atoms: _447  and  _448
REMARK  191  A    between atoms: _454  and  _456
REMARK  192  A    between atoms: _456  and  _457
REMARK  193  A    between atoms: _456  and  _459
REMARK  194  A    between atoms: _459  and  _460
REMARK  195  A    between atoms: _463  and  _465
REMARK  196  A    between atoms: _465  and  _466
REMARK  197  A    between atoms: _465  and  _468
REMARK  198  A    between atoms: _471  and  _473
REMARK  199  A    between atoms: _473  and  _474
REMARK  200  A    between atoms: _473  and  _476
REMARK  201  A    between atoms: _476  and  _477
REMARK  202  A    between atoms: _480  and  _482
REMARK  203  A    between atoms: _482  and  _483
REMARK  204  A    between atoms: _482  and  _485
REMARK  205  A    between atoms: _485  and  _486
REMARK  206  A    between atoms: _490  and  _491
REMARK  207  A    between atoms: _496  and  _498
REMARK  208  A    between atoms: _498  and  _499
REMARK  209  A    between atoms: _498  and  _501
REMARK  210  A    between atoms: _504  and  _506
REMARK  211  A    between atoms: _506  and  _507
REMARK  212  A    between atoms: _506  and  _509
REMARK  213  A    between atoms: _509  and  _510
REMARK  214  A    between atoms: _515  and  _517
REMARK  215  A    between atoms: _517  and  _518
REMARK  216  A    between atoms: _517  and  _520
REMARK  217  A    between atoms: _520  and  _521
REMARK  218  A    between atoms: _524  and  _526
REMARK  219  A    between atoms: _526  and  _527
REMARK  220  A    between atoms: _526  and  _529
REMARK  221  A    between atoms: _529  and  _530
REMARK  222  A    between atoms: _533  and  _535
REMARK  223  A    between atoms: _535  and  _536
REMARK  224  A    between atoms: _538  and  _540
REMARK  225  A    between atoms: _540  and  _541
REMARK  226  A    between atoms: _540  and  _543
REMARK  227  A    between atoms: _543  and  _544
REMARK  228  A    between atoms: _544  and  _545
REMARK  229  A    between atoms: _545  and  _546
REMARK  230  A    between atoms: _555  and  _557
REMARK  231  A    between atoms: _557  and  _558
REMARK  232  A    between atoms: _557  and  _560
REMARK  233  A    between atoms: _560  and  _561
REMARK                            x       y       z     vdW  Elec       q    Type
REMARK                         _______ _______ _______ _____ _____    ______ ____
ROOT
ATOM      1  O   HOH     1      15.734  14.991   9.832  0.00  0.00    +0.000 OA
ENDROOT
TORSDOF 0
