REMARK  Name = ../refined-set-2016/4whs/4whs_pocket.pdb
REMARK  95 active torsions:
REMARK  status: ('A' for Active; 'I' for Inactive)
REMARK    1  A    between atoms: _1  and  _3
REMARK    2  A    between atoms: _3  and  _4
REMARK    3  A    between atoms: _3  and  _6
REMARK    4  A    between atoms: _6  and  _7
REMARK    5  A    between atoms: _12  and  _13
REMARK    6  A    between atoms: _15  and  _17
REMARK    7  A    between atoms: _17  and  _18
REMARK    8  A    between atoms: _17  and  _20
REMARK    9  A    between atoms: _20  and  _21
REMARK   10  A    between atoms: _27  and  _29
REMARK   11  A    between atoms: _29  and  _30
REMARK   12  A    between atoms: _29  and  _32
REMARK   13  A    between atoms: _32  and  _33
REMARK   14  A    between atoms: _36  and  _38
REMARK   15  A    between atoms: _38  and  _39
REMARK   16  A    between atoms: _38  and  _41
REMARK   17  A    between atoms: _41  and  _42
REMARK   18  A    between atoms: _42  and  _43
REMARK   19  A    between atoms: _46  and  _48
REMARK   20  A    between atoms: _48  and  _49
REMARK   21  A    between atoms: _52  and  _54
REMARK   22  A    between atoms: _54  and  _55
REMARK   23  A    between atoms: _54  and  _57
REMARK   24  A    between atoms: _57  and  _58
REMARK   25  A    between atoms: _58  and  _59
REMARK   26  A    between atoms: _64  and  _66
REMARK   27  A    between atoms: _66  and  _67
REMARK   28  A    between atoms: _70  and  _72
REMARK   29  A    between atoms: _72  and  _73
REMARK   30  A    between atoms: _72  and  _75
REMARK   31  A    between atoms: _75  and  _76
REMARK   32  A    between atoms: _81  and  _83
REMARK   33  A    between atoms: _83  and  _84
REMARK   34  A    between atoms: _87  and  _89
REMARK   35  A    between atoms: _89  and  _90
REMARK   36  A    between atoms: _89  and  _92
REMARK   37  A    between atoms: _92  and  _93
REMARK   38  A    between atoms: _93  and  _94
REMARK   39  A    between atoms: _94  and  _95
REMARK   40  A    between atoms: _95  and  _96
REMARK   41  A    between atoms: _100  and  _102
REMARK   42  A    between atoms: _102  and  _103
REMARK   43  A    between atoms: _102  and  _105
REMARK   44  A    between atoms: _107  and  _109
REMARK   45  A    between atoms: _109  and  _110
REMARK   46  A    between atoms: _109  and  _112
REMARK   47  A    between atoms: _112  and  _113
REMARK   48  A    between atoms: _116  and  _118
REMARK   49  A    between atoms: _118  and  _119
REMARK   50  A    between atoms: _118  and  _121
REMARK   51  A    between atoms: _121  and  _122
REMARK   52  A    between atoms: _127  and  _129
REMARK   53  A    between atoms: _129  and  _130
REMARK   54  A    between atoms: _129  and  _132
REMARK   55  A    between atoms: _132  and  _133
REMARK   56  A    between atoms: _136  and  _138
REMARK   57  A    between atoms: _138  and  _139
REMARK   58  A    between atoms: _138  and  _141
REMARK   59  A    between atoms: _141  and  _142
REMARK   60  A    between atoms: _142  and  _143
REMARK   61  A    between atoms: _149  and  _150
REMARK   62  A    between atoms: _155  and  _157
REMARK   63  A    between atoms: _157  and  _158
REMARK   64  A    between atoms: _157  and  _160
REMARK   65  A    between atoms: _160  and  _161
REMARK   66  A    between atoms: _161  and  _162
REMARK   67  A    between atoms: _167  and  _169
REMARK   68  A    between atoms: _169  and  _170
REMARK   69  A    between atoms: _169  and  _172
REMARK   70  A    between atoms: _172  and  _173
REMARK   71  A    between atoms: _173  and  _174
REMARK   72  A    between atoms: _174  and  _175
REMARK   73  A    between atoms: _184  and  _186
REMARK   74  A    between atoms: _186  and  _187
REMARK   75  A    between atoms: _186  and  _189
REMARK   76  A    between atoms: _189  and  _190
REMARK   77  A    between atoms: _190  and  _191
REMARK   78  A    between atoms: _191  and  _192
REMARK   79  A    between atoms: _201  and  _203
REMARK   80  A    between atoms: _203  and  _204
REMARK   81  A    between atoms: _203  and  _206
REMARK   82  A    between atoms: _206  and  _207
REMARK   83  A    between atoms: _207  and  _208
REMARK   84  A    between atoms: _211  and  _213
REMARK   85  A    between atoms: _213  and  _214
REMARK   86  A    between atoms: _213  and  _216
REMARK   87  A    between atoms: _216  and  _217
REMARK   88  A    between atoms: _220  and  _222
REMARK   89  A    between atoms: _222  and  _223
REMARK   90  A    between atoms: _222  and  _225
REMARK   91  A    between atoms: _225  and  _226
REMARK   92  A    between atoms: _229  and  _231
REMARK   93  A    between atoms: _231  and  _232
REMARK   94  A    between atoms: _231  and  _234
REMARK   95  A    between atoms: _234  and  _235
REMARK                            x       y       z     vdW  Elec       q    Type
REMARK                         _______ _______ _______ _____ _____    ______ ____
ROOT
ATOM      1  CA  PHE A   2     -12.379 -48.817 -43.774  0.00  0.00    +0.153 C 
ENDROOT
BRANCH   1   3
ATOM      2  C   TYR A   1     -11.929 -46.999 -42.200  0.00  0.00    +0.239 C 
ATOM      3  N   PHE A   2     -11.845 -48.287 -42.520  0.00  0.00    -0.297 N 
ATOM      4  H   PHE A   2     -11.383 -48.940 -41.855  0.00  0.00    +0.150 HD
ATOM      5  O   TYR A   1     -12.641 -46.207 -42.822  0.00  0.00    -0.274 OA
BRANCH   2   6
ATOM      6  CA  TYR A   1     -11.094 -46.528 -40.993  0.00  0.00    +0.149 C 
BRANCH   6   7
ATOM      7  N   TYR A   1     -11.217 -45.091 -40.891  0.00  0.00    -0.238 NA
ATOM      8  H   TYR A   1     -12.111 -44.704 -40.527  0.00  0.00    +0.142 HD
ENDBRANCH   6   7
BRANCH   6   9
ATOM      9  CB  TYR A   1     -11.588 -47.196 -39.718  0.00  0.00    +0.053 C 
BRANCH   9  10
ATOM     10  CG  TYR A   1     -10.742 -46.995 -38.481  0.00  0.00    -0.020 A 
ATOM     11  CD2 TYR A   1     -10.912 -45.891 -37.649  0.00  0.00    -0.001 A 
ATOM     12  CE2 TYR A   1     -10.176 -45.754 -36.480  0.00  0.00    +0.036 A 
ATOM     13  CZ  TYR A   1      -9.252 -46.724 -36.139  0.00  0.00    +0.134 A 
ATOM     14  CE1 TYR A   1      -9.071 -47.833 -36.945  0.00  0.00    +0.036 A 
ATOM     15  CD1 TYR A   1      -9.822 -47.964 -38.101  0.00  0.00    -0.001 A 
BRANCH  13  16
ATOM     16  OH  TYR A   1      -8.553 -46.634 -34.952  0.00  0.00    -0.506 OA
ATOM     17  HH  TYR A   1      -8.788 -47.402 -34.373  0.00  0.00    +0.292 HD
ENDBRANCH  13  16
ENDBRANCH   9  10
ENDBRANCH   6   9
ENDBRANCH   2   6
ENDBRANCH   1   3
BRANCH   1  18
ATOM     18  C   PHE A   2     -13.443 -49.882 -43.538  0.00  0.00    +0.241 C 
ATOM     19  O   PHE A   2     -13.247 -50.789 -42.723  0.00  0.00    -0.273 OA
ATOM     20  N   ASP A   3     -14.563 -49.803 -44.263  0.00  0.00    -0.298 N 
ATOM     21  H   ASP A   3     -14.665 -49.069 -44.993  0.00  0.00    +0.150 HD
BRANCH  20  22
ATOM     22  CA  ASP A   3     -15.648 -50.761 -44.020  0.00  0.00    +0.148 C 
BRANCH  22  23
ATOM     23  C   ASP A   3     -15.383 -52.175 -44.530  0.00  0.00    +0.227 C 
ATOM     24  O   ASP A   3     -16.138 -53.090 -44.208  0.00  0.00    -0.286 OA
ENDBRANCH  22  23
BRANCH  22  25
ATOM     25  CB  ASP A   3     -17.019 -50.245 -44.490  0.00  0.00    +0.142 C 
BRANCH  25  26
ATOM     26  CG  ASP A   3     -17.186 -50.202 -45.984  0.00  0.00    +0.367 C 
ATOM     27  OD2 ASP A   3     -18.357 -50.091 -46.413  0.00  0.00    -0.246 OA
ATOM     28  OD1 ASP A   3     -16.202 -50.281 -46.732  0.00  0.00    -0.246 OA
ENDBRANCH  25  26
ENDBRANCH  22  25
ENDBRANCH  20  22
ENDBRANCH   1  18
BRANCH   1  29
ATOM     29  CB  PHE A   2     -11.220 -49.410 -44.589  0.00  0.00    +0.055 C 
BRANCH  29  30
ATOM     30  CG  PHE A   2     -10.139 -48.419 -44.896  0.00  0.00    -0.020 A 
ATOM     31  CD2 PHE A   2      -9.052 -48.285 -44.038  0.00  0.00    -0.004 A 
ATOM     32  CE2 PHE A   2      -8.051 -47.371 -44.294  0.00  0.00    -0.000 A 
ATOM     33  CZ  PHE A   2      -8.118 -46.593 -45.420  0.00  0.00    -0.000 A 
ATOM     34  CE1 PHE A   2      -9.169 -46.720 -46.308  0.00  0.00    -0.000 A 
ATOM     35  CD1 PHE A   2     -10.187 -47.624 -46.034  0.00  0.00    -0.004 A 
ENDBRANCH  29  30
ENDBRANCH   1  29
TORSDOF 13
REMARK  Name = ../refined-set-2016/4whs/4whs_pocket.pdb
REMARK  95 active torsions:
REMARK  status: ('A' for Active; 'I' for Inactive)
REMARK    1  A    between atoms: _1  and  _3
REMARK    2  A    between atoms: _3  and  _4
REMARK    3  A    between atoms: _3  and  _6
REMARK    4  A    between atoms: _6  and  _7
REMARK    5  A    between atoms: _12  and  _13
REMARK    6  A    between atoms: _15  and  _17
REMARK    7  A    between atoms: _17  and  _18
REMARK    8  A    between atoms: _17  and  _20
REMARK    9  A    between atoms: _20  and  _21
REMARK   10  A    between atoms: _27  and  _29
REMARK   11  A    between atoms: _29  and  _30
REMARK   12  A    between atoms: _29  and  _32
REMARK   13  A    between atoms: _32  and  _33
REMARK   14  A    between atoms: _36  and  _38
REMARK   15  A    between atoms: _38  and  _39
REMARK   16  A    between atoms: _38  and  _41
REMARK   17  A    between atoms: _41  and  _42
REMARK   18  A    between atoms: _42  and  _43
REMARK   19  A    between atoms: _46  and  _48
REMARK   20  A    between atoms: _48  and  _49
REMARK   21  A    between atoms: _52  and  _54
REMARK   22  A    between atoms: _54  and  _55
REMARK   23  A    between atoms: _54  and  _57
REMARK   24  A    between atoms: _57  and  _58
REMARK   25  A    between atoms: _58  and  _59
REMARK   26  A    between atoms: _64  and  _66
REMARK   27  A    between atoms: _66  and  _67
REMARK   28  A    between atoms: _70  and  _72
REMARK   29  A    between atoms: _72  and  _73
REMARK   30  A    between atoms: _72  and  _75
REMARK   31  A    between atoms: _75  and  _76
REMARK   32  A    between atoms: _81  and  _83
REMARK   33  A    between atoms: _83  and  _84
REMARK   34  A    between atoms: _87  and  _89
REMARK   35  A    between atoms: _89  and  _90
REMARK   36  A    between atoms: _89  and  _92
REMARK   37  A    between atoms: _92  and  _93
REMARK   38  A    between atoms: _93  and  _94
REMARK   39  A    between atoms: _94  and  _95
REMARK   40  A    between atoms: _95  and  _96
REMARK   41  A    between atoms: _100  and  _102
REMARK   42  A    between atoms: _102  and  _103
REMARK   43  A    between atoms: _102  and  _105
REMARK   44  A    between atoms: _107  and  _109
REMARK   45  A    between atoms: _109  and  _110
REMARK   46  A    between atoms: _109  and  _112
REMARK   47  A    between atoms: _112  and  _113
REMARK   48  A    between atoms: _116  and  _118
REMARK   49  A    between atoms: _118  and  _119
REMARK   50  A    between atoms: _118  and  _121
REMARK   51  A    between atoms: _121  and  _122
REMARK   52  A    between atoms: _127  and  _129
REMARK   53  A    between atoms: _129  and  _130
REMARK   54  A    between atoms: _129  and  _132
REMARK   55  A    between atoms: _132  and  _133
REMARK   56  A    between atoms: _136  and  _138
REMARK   57  A    between atoms: _138  and  _139
REMARK   58  A    between atoms: _138  and  _141
REMARK   59  A    between atoms: _141  and  _142
REMARK   60  A    between atoms: _142  and  _143
REMARK   61  A    between atoms: _149  and  _150
REMARK   62  A    between atoms: _155  and  _157
REMARK   63  A    between atoms: _157  and  _158
REMARK   64  A    between atoms: _157  and  _160
REMARK   65  A    between atoms: _160  and  _161
REMARK   66  A    between atoms: _161  and  _162
REMARK   67  A    between atoms: _167  and  _169
REMARK   68  A    between atoms: _169  and  _170
REMARK   69  A    between atoms: _169  and  _172
REMARK   70  A    between atoms: _172  and  _173
REMARK   71  A    between atoms: _173  and  _174
REMARK   72  A    between atoms: _174  and  _175
REMARK   73  A    between atoms: _184  and  _186
REMARK   74  A    between atoms: _186  and  _187
REMARK   75  A    between atoms: _186  and  _189
REMARK   76  A    between atoms: _189  and  _190
REMARK   77  A    between atoms: _190  and  _191
REMARK   78  A    between atoms: _191  and  _192
REMARK   79  A    between atoms: _201  and  _203
REMARK   80  A    between atoms: _203  and  _204
REMARK   81  A    between atoms: _203  and  _206
REMARK   82  A    between atoms: _206  and  _207
REMARK   83  A    between atoms: _207  and  _208
REMARK   84  A    between atoms: _211  and  _213
REMARK   85  A    between atoms: _213  and  _214
REMARK   86  A    between atoms: _213  and  _216
REMARK   87  A    between atoms: _216  and  _217
REMARK   88  A    between atoms: _220  and  _222
REMARK   89  A    between atoms: _222  and  _223
REMARK   90  A    between atoms: _222  and  _225
REMARK   91  A    between atoms: _225  and  _226
REMARK   92  A    between atoms: _229  and  _231
REMARK   93  A    between atoms: _231  and  _232
REMARK   94  A    between atoms: _231  and  _234
REMARK   95  A    between atoms: _234  and  _235
REMARK                            x       y       z     vdW  Elec       q    Type
REMARK                         _______ _______ _______ _____ _____    ______ ____
ROOT
ATOM      1  C   ALA A   4     -10.538 -54.520 -36.826  0.00  0.00    +0.241 C 
ATOM      2  O   ALA A   4     -10.049 -54.235 -35.729  0.00  0.00    -0.273 OA
ATOM      3  N   ASN A   5     -11.507 -53.800 -37.393  0.00  0.00    -0.297 N 
ATOM      4  H   ASN A   5     -11.854 -54.065 -38.337  0.00  0.00    +0.150 HD
ENDROOT
BRANCH   1   5
ATOM      5  CA  ALA A   4     -10.019 -55.715 -37.609  0.00  0.00    +0.149 C 
ATOM      6  CB  ALA A   4      -8.968 -55.290 -38.623  0.00  0.00    +0.031 C 
BRANCH   5   9
ATOM      7  C   GLN A   3     -12.004 -57.115 -37.530  0.00  0.00    +0.241 C 
ATOM      8  O   GLN A   3     -11.950 -57.177 -36.302  0.00  0.00    -0.273 OA
ATOM      9  N   ALA A   4     -11.110 -56.446 -38.250  0.00  0.00    -0.297 N 
ATOM     10  H   ALA A   4     -11.188 -56.442 -39.287  0.00  0.00    +0.150 HD
BRANCH   7  11
ATOM     11  CA  GLN A   3     -13.168 -57.766 -38.306  0.00  0.00    +0.149 C 
BRANCH  11  14
ATOM     12  C   ALA A   2     -14.273 -55.747 -39.041  0.00  0.00    +0.241 C 
ATOM     13  O   ALA A   2     -14.426 -55.400 -37.877  0.00  0.00    -0.273 OA
ATOM     14  N   GLN A   3     -13.649 -56.875 -39.360  0.00  0.00    -0.297 N 
ATOM     15  H   GLN A   3     -13.503 -57.124 -40.359  0.00  0.00    +0.150 HD
BRANCH  12  16
ATOM     16  CA  ALA A   2     -14.810 -54.894 -40.180  0.00  0.00    +0.149 C 
ATOM     17  CB  ALA A   2     -16.200 -55.375 -40.594  0.00  0.00    +0.031 C 
BRANCH  16  20
ATOM     18  C   GLU A   1     -12.674 -54.392 -41.189  0.00  0.00    +0.238 C 
ATOM     19  O   GLU A   1     -12.177 -54.214 -40.084  0.00  0.00    -0.274 OA
ATOM     20  N   ALA A   2     -13.926 -54.827 -41.330  0.00  0.00    -0.297 N 
ATOM     21  H   ALA A   2     -14.271 -55.119 -42.267  0.00  0.00    +0.150 HD
BRANCH  18  22
ATOM     22  CA  GLU A   1     -11.861 -54.145 -42.467  0.00  0.00    +0.145 C 
BRANCH  22  23
ATOM     23  N   GLU A   1     -12.726 -53.661 -43.553  0.00  0.00    -0.238 NA
ATOM     24  H   GLU A   1     -13.285 -52.799 -43.392  0.00  0.00    +0.142 HD
ENDBRANCH  22  23
BRANCH  22  25
ATOM     25  CB  GLU A   1     -10.741 -53.126 -42.183  0.00  0.00    +0.038 C 
BRANCH  25  26
ATOM     26  CG  GLU A   1      -9.783 -52.902 -43.338  0.00  0.00    +0.116 C 
BRANCH  26  27
ATOM     27  CD  GLU A   1      -8.832 -54.045 -43.561  0.00  0.00    +0.365 C 
ATOM     28  OE2 GLU A   1      -8.661 -54.881 -42.643  0.00  0.00    -0.246 OA
ATOM     29  OE1 GLU A   1      -8.251 -54.082 -44.661  0.00  0.00    -0.246 OA
ENDBRANCH  26  27
ENDBRANCH  25  26
ENDBRANCH  22  25
ENDBRANCH  18  22
ENDBRANCH  16  20
ENDBRANCH  12  16
ENDBRANCH  11  14
BRANCH  11  30
ATOM     30  CB  GLN A   3     -12.798 -59.123 -38.870  0.00  0.00    +0.039 C 
BRANCH  30  31
ATOM     31  CG  GLN A   3     -14.044 -59.866 -39.346  0.00  0.00    +0.087 C 
BRANCH  31  32
ATOM     32  CD  GLN A   3     -13.733 -61.128 -40.111  0.00  0.00    +0.219 C 
ATOM     33  OE1 GLN A   3     -12.782 -61.844 -39.812  0.00  0.00    -0.275 OA
ATOM     34  NE2 GLN A   3     -14.548 -61.419 -41.113  0.00  0.00    -0.329 N 
ATOM     35 HE21 GLN A   3     -15.344 -60.788 -41.336  0.00  0.00    +0.145 HD
ATOM     36 HE22 GLN A   3     -14.393 -62.279 -41.677  0.00  0.00    +0.145 HD
ENDBRANCH  31  32
ENDBRANCH  30  31
ENDBRANCH  11  30
ENDBRANCH   7  11
ENDBRANCH   5   9
ENDBRANCH   1   5
BRANCH   3  37
ATOM     37  CA  ASN A   5     -12.087 -52.651 -36.716  0.00  0.00    +0.158 C 
BRANCH  37  38
ATOM     38  C   ASN A   5     -12.691 -53.030 -35.375  0.00  0.00    +0.241 C 
ATOM     39  O   ASN A   5     -12.547 -52.292 -34.405  0.00  0.00    -0.273 OA
ATOM     40  N   ALA A   6     -13.352 -54.189 -35.324  0.00  0.00    -0.297 N 
ATOM     41  H   ALA A   6     -13.384 -54.794 -36.170  0.00  0.00    +0.150 HD
BRANCH  40  42
ATOM     42  CA  ALA A   6     -14.036 -54.630 -34.100  0.00  0.00    +0.149 C 
ATOM     43  CB  ALA A   6     -14.784 -55.923 -34.357  0.00  0.00    +0.031 C 
BRANCH  42  44
ATOM     44  C   ALA A   6     -13.080 -54.831 -32.906  0.00  0.00    +0.241 C 
ATOM     45  O   ALA A   6     -13.500 -54.779 -31.749  0.00  0.00    -0.273 OA
ATOM     46  N   LYS A   7     -11.800 -55.060 -33.207  0.00  0.00    -0.297 N 
ATOM     47  H   LYS A   7     -11.524 -55.073 -34.210  0.00  0.00    +0.150 HD
BRANCH  46  48
ATOM     48  CA  LYS A   7     -10.767 -55.294 -32.200  0.00  0.00    +0.149 C 
BRANCH  48  49
ATOM     49  C   LYS A   7      -9.748 -54.146 -32.064  0.00  0.00    +0.241 C 
ATOM     50  O   LYS A   7      -8.792 -54.267 -31.302  0.00  0.00    -0.273 OA
ATOM     51  N   CYS A   8      -9.939 -53.044 -32.779  0.00  0.00    -0.297 N 
ATOM     52  H   CYS A   8     -10.774 -52.963 -33.394  0.00  0.00    +0.150 HD
BRANCH  51  53
ATOM     53  CA  CYS A   8      -8.988 -51.954 -32.706  0.00  0.00    +0.149 C 
BRANCH  53  54
ATOM     54  C   CYS A   8      -9.019 -51.351 -31.311  0.00  0.00    +0.228 C 
ATOM     55  O   CYS A   8     -10.077 -50.938 -30.852  0.00  0.00    -0.286 OA
ENDBRANCH  53  54
BRANCH  53  56
ATOM     56  CB  CYS A   8      -9.290 -50.856 -33.737  0.00  0.00    +0.096 C 
ATOM     57  SG  CYS A   8      -8.093 -49.500 -33.653  0.00  0.00    -0.080 S 
ENDBRANCH  53  56
ENDBRANCH  51  53
ENDBRANCH  48  49
BRANCH  48  58
ATOM     58  CB  LYS A   7     -10.011 -56.598 -32.527  0.00  0.00    +0.029 C 
BRANCH  58  59
ATOM     59  CG  LYS A   7     -10.864 -57.856 -32.488  0.00  0.00    +0.000 C 
BRANCH  59  60
ATOM     60  CD  LYS A   7     -10.005 -59.098 -32.724  0.00  0.00    -0.024 C 
BRANCH  60  61
ATOM     61  CE  LYS A   7     -10.657 -60.357 -32.167  0.00  0.00    -0.086 C 
BRANCH  61  62
ATOM     62  NZ  LYS A   7      -9.653 -61.436 -31.943  0.00  0.00    +0.380 N 
ATOM     63  HZ1 LYS A   7      -8.937 -61.106 -31.264  0.00  0.00    -0.089 HD
ATOM     64  HZ2 LYS A   7     -10.130 -62.279 -31.564  0.00  0.00    -0.089 HD
ATOM     65  HZ3 LYS A   7      -9.194 -61.673 -32.845  0.00  0.00    -0.089 HD
ENDBRANCH  61  62
ENDBRANCH  60  61
ENDBRANCH  59  60
ENDBRANCH  58  59
ENDBRANCH  48  58
ENDBRANCH  46  48
ENDBRANCH  42  44
ENDBRANCH  40  42
ENDBRANCH  37  38
BRANCH  37  66
ATOM     66  CB  ASN A   5     -13.144 -51.970 -37.571  0.00  0.00    +0.114 C 
BRANCH  66  67
ATOM     67  CG  ASN A   5     -12.596 -51.386 -38.855  0.00  0.00    +0.222 C 
ATOM     68  OD1 ASN A   5     -11.393 -51.129 -38.981  0.00  0.00    -0.275 OA
ATOM     69  ND2 ASN A   5     -13.487 -51.137 -39.819  0.00  0.00    -0.329 N 
ATOM     70 HD21 ASN A   5     -14.490 -51.369 -39.672  0.00  0.00    +0.145 HD
ATOM     71 HD22 ASN A   5     -13.177 -50.712 -40.716  0.00  0.00    +0.145 HD
ENDBRANCH  66  67
ENDBRANCH  37  66
ENDBRANCH   3  37
TORSDOF 30
REMARK  Name = ../refined-set-2016/4whs/4whs_pocket.pdb
REMARK  95 active torsions:
REMARK  status: ('A' for Active; 'I' for Inactive)
REMARK    1  A    between atoms: _1  and  _3
REMARK    2  A    between atoms: _3  and  _4
REMARK    3  A    between atoms: _3  and  _6
REMARK    4  A    between atoms: _6  and  _7
REMARK    5  A    between atoms: _12  and  _13
REMARK    6  A    between atoms: _15  and  _17
REMARK    7  A    between atoms: _17  and  _18
REMARK    8  A    between atoms: _17  and  _20
REMARK    9  A    between atoms: _20  and  _21
REMARK   10  A    between atoms: _27  and  _29
REMARK   11  A    between atoms: _29  and  _30
REMARK   12  A    between atoms: _29  and  _32
REMARK   13  A    between atoms: _32  and  _33
REMARK   14  A    between atoms: _36  and  _38
REMARK   15  A    between atoms: _38  and  _39
REMARK   16  A    between atoms: _38  and  _41
REMARK   17  A    between atoms: _41  and  _42
REMARK   18  A    between atoms: _42  and  _43
REMARK   19  A    between atoms: _46  and  _48
REMARK   20  A    between atoms: _48  and  _49
REMARK   21  A    between atoms: _52  and  _54
REMARK   22  A    between atoms: _54  and  _55
REMARK   23  A    between atoms: _54  and  _57
REMARK   24  A    between atoms: _57  and  _58
REMARK   25  A    between atoms: _58  and  _59
REMARK   26  A    between atoms: _64  and  _66
REMARK   27  A    between atoms: _66  and  _67
REMARK   28  A    between atoms: _70  and  _72
REMARK   29  A    between atoms: _72  and  _73
REMARK   30  A    between atoms: _72  and  _75
REMARK   31  A    between atoms: _75  and  _76
REMARK   32  A    between atoms: _81  and  _83
REMARK   33  A    between atoms: _83  and  _84
REMARK   34  A    between atoms: _87  and  _89
REMARK   35  A    between atoms: _89  and  _90
REMARK   36  A    between atoms: _89  and  _92
REMARK   37  A    between atoms: _92  and  _93
REMARK   38  A    between atoms: _93  and  _94
REMARK   39  A    between atoms: _94  and  _95
REMARK   40  A    between atoms: _95  and  _96
REMARK   41  A    between atoms: _100  and  _102
REMARK   42  A    between atoms: _102  and  _103
REMARK   43  A    between atoms: _102  and  _105
REMARK   44  A    between atoms: _107  and  _109
REMARK   45  A    between atoms: _109  and  _110
REMARK   46  A    between atoms: _109  and  _112
REMARK   47  A    between atoms: _112  and  _113
REMARK   48  A    between atoms: _116  and  _118
REMARK   49  A    between atoms: _118  and  _119
REMARK   50  A    between atoms: _118  and  _121
REMARK   51  A    between atoms: _121  and  _122
REMARK   52  A    between atoms: _127  and  _129
REMARK   53  A    between atoms: _129  and  _130
REMARK   54  A    between atoms: _129  and  _132
REMARK   55  A    between atoms: _132  and  _133
REMARK   56  A    between atoms: _136  and  _138
REMARK   57  A    between atoms: _138  and  _139
REMARK   58  A    between atoms: _138  and  _141
REMARK   59  A    between atoms: _141  and  _142
REMARK   60  A    between atoms: _142  and  _143
REMARK   61  A    between atoms: _149  and  _150
REMARK   62  A    between atoms: _155  and  _157
REMARK   63  A    between atoms: _157  and  _158
REMARK   64  A    between atoms: _157  and  _160
REMARK   65  A    between atoms: _160  and  _161
REMARK   66  A    between atoms: _161  and  _162
REMARK   67  A    between atoms: _167  and  _169
REMARK   68  A    between atoms: _169  and  _170
REMARK   69  A    between atoms: _169  and  _172
REMARK   70  A    between atoms: _172  and  _173
REMARK   71  A    between atoms: _173  and  _174
REMARK   72  A    between atoms: _174  and  _175
REMARK   73  A    between atoms: _184  and  _186
REMARK   74  A    between atoms: _186  and  _187
REMARK   75  A    between atoms: _186  and  _189
REMARK   76  A    between atoms: _189  and  _190
REMARK   77  A    between atoms: _190  and  _191
REMARK   78  A    between atoms: _191  and  _192
REMARK   79  A    between atoms: _201  and  _203
REMARK   80  A    between atoms: _203  and  _204
REMARK   81  A    between atoms: _203  and  _206
REMARK   82  A    between atoms: _206  and  _207
REMARK   83  A    between atoms: _207  and  _208
REMARK   84  A    between atoms: _211  and  _213
REMARK   85  A    between atoms: _213  and  _214
REMARK   86  A    between atoms: _213  and  _216
REMARK   87  A    between atoms: _216  and  _217
REMARK   88  A    between atoms: _220  and  _222
REMARK   89  A    between atoms: _222  and  _223
REMARK   90  A    between atoms: _222  and  _225
REMARK   91  A    between atoms: _225  and  _226
REMARK   92  A    between atoms: _229  and  _231
REMARK   93  A    between atoms: _231  and  _232
REMARK   94  A    between atoms: _231  and  _234
REMARK   95  A    between atoms: _234  and  _235
REMARK                            x       y       z     vdW  Elec       q    Type
REMARK                         _______ _______ _______ _____ _____    ______ ____
ROOT
ATOM      1  C   LEU A   1     -12.659 -48.123 -30.393  0.00  0.00    +0.238 C 
ATOM      2  N   ASN A   2     -12.041 -49.057 -29.682  0.00  0.00    -0.298 N 
ATOM      3  H   ASN A   2     -11.135 -49.440 -30.019  0.00  0.00    +0.150 HD
ATOM      4  O   LEU A   1     -13.714 -47.603 -30.018  0.00  0.00    -0.274 OA
ENDROOT
BRANCH   1   5
ATOM      5  CA  LEU A   1     -11.972 -47.658 -31.678  0.00  0.00    +0.145 C 
BRANCH   5   6
ATOM      6  N   LEU A   1     -10.509 -47.651 -31.562  0.00  0.00    -0.238 NA
ATOM      7  H   LEU A   1      -9.921 -48.193 -32.227  0.00  0.00    +0.142 HD
ENDBRANCH   5   6
BRANCH   5   8
ATOM      8  CB  LEU A   1     -12.447 -48.497 -32.866  0.00  0.00    +0.026 C 
BRANCH   8   9
ATOM      9  CG  LEU A   1     -12.185 -47.910 -34.251  0.00  0.00    +0.002 C 
ATOM     10  CD2 LEU A   1     -12.951 -46.628 -34.483  0.00  0.00    +0.000 C 
ATOM     11  CD1 LEU A   1     -12.513 -48.911 -35.340  0.00  0.00    +0.000 C 
ENDBRANCH   8   9
ENDBRANCH   5   8
ENDBRANCH   1   5
BRANCH   2  12
ATOM     12  CA  ASN A   2     -12.608 -49.553 -28.441  0.00  0.00    +0.146 C 
BRANCH  12  13
ATOM     13  C   ASN A   2     -12.578 -48.555 -27.285  0.00  0.00    +0.227 C 
ATOM     14  O   ASN A   2     -13.254 -48.769 -26.288  0.00  0.00    -0.286 OA
ENDBRANCH  12  13
BRANCH  12  15
ATOM     15  CB  ASN A   2     -11.942 -50.867 -28.024  0.00  0.00    +0.112 C 
BRANCH  15  16
ATOM     16  CG  ASN A   2     -12.458 -52.062 -28.812  0.00  0.00    +0.222 C 
ATOM     17  ND2 ASN A   2     -11.688 -53.144 -28.813  0.00  0.00    -0.329 N 
ATOM     18 HD21 ASN A   2     -10.783 -53.139 -28.300  0.00  0.00    +0.145 HD
ATOM     19 HD22 ASN A   2     -11.990 -53.997 -29.327  0.00  0.00    +0.145 HD
ATOM     20  OD1 ASN A   2     -13.529 -52.016 -29.398  0.00  0.00    -0.275 OA
ENDBRANCH  15  16
ENDBRANCH  12  15
ENDBRANCH   2  12
TORSDOF 8
REMARK  Name = ../refined-set-2016/4whs/4whs_pocket.pdb
REMARK  95 active torsions:
REMARK  status: ('A' for Active; 'I' for Inactive)
REMARK    1  A    between atoms: _1  and  _3
REMARK    2  A    between atoms: _3  and  _4
REMARK    3  A    between atoms: _3  and  _6
REMARK    4  A    between atoms: _6  and  _7
REMARK    5  A    between atoms: _12  and  _13
REMARK    6  A    between atoms: _15  and  _17
REMARK    7  A    between atoms: _17  and  _18
REMARK    8  A    between atoms: _17  and  _20
REMARK    9  A    between atoms: _20  and  _21
REMARK   10  A    between atoms: _27  and  _29
REMARK   11  A    between atoms: _29  and  _30
REMARK   12  A    between atoms: _29  and  _32
REMARK   13  A    between atoms: _32  and  _33
REMARK   14  A    between atoms: _36  and  _38
REMARK   15  A    between atoms: _38  and  _39
REMARK   16  A    between atoms: _38  and  _41
REMARK   17  A    between atoms: _41  and  _42
REMARK   18  A    between atoms: _42  and  _43
REMARK   19  A    between atoms: _46  and  _48
REMARK   20  A    between atoms: _48  and  _49
REMARK   21  A    between atoms: _52  and  _54
REMARK   22  A    between atoms: _54  and  _55
REMARK   23  A    between atoms: _54  and  _57
REMARK   24  A    between atoms: _57  and  _58
REMARK   25  A    between atoms: _58  and  _59
REMARK   26  A    between atoms: _64  and  _66
REMARK   27  A    between atoms: _66  and  _67
REMARK   28  A    between atoms: _70  and  _72
REMARK   29  A    between atoms: _72  and  _73
REMARK   30  A    between atoms: _72  and  _75
REMARK   31  A    between atoms: _75  and  _76
REMARK   32  A    between atoms: _81  and  _83
REMARK   33  A    between atoms: _83  and  _84
REMARK   34  A    between atoms: _87  and  _89
REMARK   35  A    between atoms: _89  and  _90
REMARK   36  A    between atoms: _89  and  _92
REMARK   37  A    between atoms: _92  and  _93
REMARK   38  A    between atoms: _93  and  _94
REMARK   39  A    between atoms: _94  and  _95
REMARK   40  A    between atoms: _95  and  _96
REMARK   41  A    between atoms: _100  and  _102
REMARK   42  A    between atoms: _102  and  _103
REMARK   43  A    between atoms: _102  and  _105
REMARK   44  A    between atoms: _107  and  _109
REMARK   45  A    between atoms: _109  and  _110
REMARK   46  A    between atoms: _109  and  _112
REMARK   47  A    between atoms: _112  and  _113
REMARK   48  A    between atoms: _116  and  _118
REMARK   49  A    between atoms: _118  and  _119
REMARK   50  A    between atoms: _118  and  _121
REMARK   51  A    between atoms: _121  and  _122
REMARK   52  A    between atoms: _127  and  _129
REMARK   53  A    between atoms: _129  and  _130
REMARK   54  A    between atoms: _129  and  _132
REMARK   55  A    between atoms: _132  and  _133
REMARK   56  A    between atoms: _136  and  _138
REMARK   57  A    between atoms: _138  and  _139
REMARK   58  A    between atoms: _138  and  _141
REMARK   59  A    between atoms: _141  and  _142
REMARK   60  A    between atoms: _142  and  _143
REMARK   61  A    between atoms: _149  and  _150
REMARK   62  A    between atoms: _155  and  _157
REMARK   63  A    between atoms: _157  and  _158
REMARK   64  A    between atoms: _157  and  _160
REMARK   65  A    between atoms: _160  and  _161
REMARK   66  A    between atoms: _161  and  _162
REMARK   67  A    between atoms: _167  and  _169
REMARK   68  A    between atoms: _169  and  _170
REMARK   69  A    between atoms: _169  and  _172
REMARK   70  A    between atoms: _172  and  _173
REMARK   71  A    between atoms: _173  and  _174
REMARK   72  A    between atoms: _174  and  _175
REMARK   73  A    between atoms: _184  and  _186
REMARK   74  A    between atoms: _186  and  _187
REMARK   75  A    between atoms: _186  and  _189
REMARK   76  A    between atoms: _189  and  _190
REMARK   77  A    between atoms: _190  and  _191
REMARK   78  A    between atoms: _191  and  _192
REMARK   79  A    between atoms: _201  and  _203
REMARK   80  A    between atoms: _203  and  _204
REMARK   81  A    between atoms: _203  and  _206
REMARK   82  A    between atoms: _206  and  _207
REMARK   83  A    between atoms: _207  and  _208
REMARK   84  A    between atoms: _211  and  _213
REMARK   85  A    between atoms: _213  and  _214
REMARK   86  A    between atoms: _213  and  _216
REMARK   87  A    between atoms: _216  and  _217
REMARK   88  A    between atoms: _220  and  _222
REMARK   89  A    between atoms: _222  and  _223
REMARK   90  A    between atoms: _222  and  _225
REMARK   91  A    between atoms: _225  and  _226
REMARK   92  A    between atoms: _229  and  _231
REMARK   93  A    between atoms: _231  and  _232
REMARK   94  A    between atoms: _231  and  _234
REMARK   95  A    between atoms: _234  and  _235
REMARK                            x       y       z     vdW  Elec       q    Type
REMARK                         _______ _______ _______ _____ _____    ______ ____
ROOT
ATOM      1  CA  ILE A   1     -15.081 -44.913 -27.940  0.00  0.00    +0.133 C 
ENDROOT
BRANCH   1   2
ATOM      2  N   ILE A   1     -13.818 -45.610 -27.745  0.00  0.00    -0.239 NA
ATOM      3  H   ILE A   1     -13.476 -46.255 -28.486  0.00  0.00    +0.142 HD
ENDBRANCH   1   2
BRANCH   1   4
ATOM      4  C   ILE A   1     -16.131 -45.756 -27.229  0.00  0.00    +0.224 C 
ATOM      5  O   ILE A   1     -16.381 -46.882 -27.641  0.00  0.00    -0.287 OA
ENDBRANCH   1   4
BRANCH   1   6
ATOM      6  CB  ILE A   1     -15.379 -44.765 -29.446  0.00  0.00    +0.023 C 
ATOM      7  CG2 ILE A   1     -16.743 -44.107 -29.675  0.00  0.00    +0.002 C 
BRANCH   6   8
ATOM      8  CG1 ILE A   1     -14.259 -43.950 -30.118  0.00  0.00    +0.002 C 
ATOM      9  CD1 ILE A   1     -14.206 -44.118 -31.620  0.00  0.00    +0.000 C 
ENDBRANCH   6   8
ENDBRANCH   1   6
TORSDOF 4
REMARK  Name = ../refined-set-2016/4whs/4whs_pocket.pdb
REMARK  95 active torsions:
REMARK  status: ('A' for Active; 'I' for Inactive)
REMARK    1  A    between atoms: _1  and  _3
REMARK    2  A    between atoms: _3  and  _4
REMARK    3  A    between atoms: _3  and  _6
REMARK    4  A    between atoms: _6  and  _7
REMARK    5  A    between atoms: _12  and  _13
REMARK    6  A    between atoms: _15  and  _17
REMARK    7  A    between atoms: _17  and  _18
REMARK    8  A    between atoms: _17  and  _20
REMARK    9  A    between atoms: _20  and  _21
REMARK   10  A    between atoms: _27  and  _29
REMARK   11  A    between atoms: _29  and  _30
REMARK   12  A    between atoms: _29  and  _32
REMARK   13  A    between atoms: _32  and  _33
REMARK   14  A    between atoms: _36  and  _38
REMARK   15  A    between atoms: _38  and  _39
REMARK   16  A    between atoms: _38  and  _41
REMARK   17  A    between atoms: _41  and  _42
REMARK   18  A    between atoms: _42  and  _43
REMARK   19  A    between atoms: _46  and  _48
REMARK   20  A    between atoms: _48  and  _49
REMARK   21  A    between atoms: _52  and  _54
REMARK   22  A    between atoms: _54  and  _55
REMARK   23  A    between atoms: _54  and  _57
REMARK   24  A    between atoms: _57  and  _58
REMARK   25  A    between atoms: _58  and  _59
REMARK   26  A    between atoms: _64  and  _66
REMARK   27  A    between atoms: _66  and  _67
REMARK   28  A    between atoms: _70  and  _72
REMARK   29  A    between atoms: _72  and  _73
REMARK   30  A    between atoms: _72  and  _75
REMARK   31  A    between atoms: _75  and  _76
REMARK   32  A    between atoms: _81  and  _83
REMARK   33  A    between atoms: _83  and  _84
REMARK   34  A    between atoms: _87  and  _89
REMARK   35  A    between atoms: _89  and  _90
REMARK   36  A    between atoms: _89  and  _92
REMARK   37  A    between atoms: _92  and  _93
REMARK   38  A    between atoms: _93  and  _94
REMARK   39  A    between atoms: _94  and  _95
REMARK   40  A    between atoms: _95  and  _96
REMARK   41  A    between atoms: _100  and  _102
REMARK   42  A    between atoms: _102  and  _103
REMARK   43  A    between atoms: _102  and  _105
REMARK   44  A    between atoms: _107  and  _109
REMARK   45  A    between atoms: _109  and  _110
REMARK   46  A    between atoms: _109  and  _112
REMARK   47  A    between atoms: _112  and  _113
REMARK   48  A    between atoms: _116  and  _118
REMARK   49  A    between atoms: _118  and  _119
REMARK   50  A    between atoms: _118  and  _121
REMARK   51  A    between atoms: _121  and  _122
REMARK   52  A    between atoms: _127  and  _129
REMARK   53  A    between atoms: _129  and  _130
REMARK   54  A    between atoms: _129  and  _132
REMARK   55  A    between atoms: _132  and  _133
REMARK   56  A    between atoms: _136  and  _138
REMARK   57  A    between atoms: _138  and  _139
REMARK   58  A    between atoms: _138  and  _141
REMARK   59  A    between atoms: _141  and  _142
REMARK   60  A    between atoms: _142  and  _143
REMARK   61  A    between atoms: _149  and  _150
REMARK   62  A    between atoms: _155  and  _157
REMARK   63  A    between atoms: _157  and  _158
REMARK   64  A    between atoms: _157  and  _160
REMARK   65  A    between atoms: _160  and  _161
REMARK   66  A    between atoms: _161  and  _162
REMARK   67  A    between atoms: _167  and  _169
REMARK   68  A    between atoms: _169  and  _170
REMARK   69  A    between atoms: _169  and  _172
REMARK   70  A    between atoms: _172  and  _173
REMARK   71  A    between atoms: _173  and  _174
REMARK   72  A    between atoms: _174  and  _175
REMARK   73  A    between atoms: _184  and  _186
REMARK   74  A    between atoms: _186  and  _187
REMARK   75  A    between atoms: _186  and  _189
REMARK   76  A    between atoms: _189  and  _190
REMARK   77  A    between atoms: _190  and  _191
REMARK   78  A    between atoms: _191  and  _192
REMARK   79  A    between atoms: _201  and  _203
REMARK   80  A    between atoms: _203  and  _204
REMARK   81  A    between atoms: _203  and  _206
REMARK   82  A    between atoms: _206  and  _207
REMARK   83  A    between atoms: _207  and  _208
REMARK   84  A    between atoms: _211  and  _213
REMARK   85  A    between atoms: _213  and  _214
REMARK   86  A    between atoms: _213  and  _216
REMARK   87  A    between atoms: _216  and  _217
REMARK   88  A    between atoms: _220  and  _222
REMARK   89  A    between atoms: _222  and  _223
REMARK   90  A    between atoms: _222  and  _225
REMARK   91  A    between atoms: _225  and  _226
REMARK   92  A    between atoms: _229  and  _231
REMARK   93  A    between atoms: _231  and  _232
REMARK   94  A    between atoms: _231  and  _234
REMARK   95  A    between atoms: _234  and  _235
REMARK                            x       y       z     vdW  Elec       q    Type
REMARK                         _______ _______ _______ _____ _____    ______ ____
ROOT
ATOM      1  CA  ARG A   5     -17.545 -45.929 -33.675  0.00  0.00    +0.149 C 
ENDROOT
BRANCH   1   3
ATOM      2  C   ARG A   4     -19.045 -44.095 -33.135  0.00  0.00    +0.241 C 
ATOM      3  N   ARG A   5     -18.639 -45.340 -32.896  0.00  0.00    -0.297 N 
ATOM      4  H   ARG A   5     -19.101 -45.899 -32.151  0.00  0.00    +0.150 HD
ATOM      5  O   ARG A   4     -18.503 -43.378 -33.984  0.00  0.00    -0.273 OA
BRANCH   2   6
ATOM      6  CA  ARG A   4     -20.244 -43.572 -32.338  0.00  0.00    +0.149 C 
BRANCH   6   8
ATOM      7  C   GLN A   3     -21.942 -45.195 -32.886  0.00  0.00    +0.241 C 
ATOM      8  N   ARG A   4     -21.164 -44.643 -31.959  0.00  0.00    -0.297 N 
ATOM      9  H   ARG A   4     -21.210 -44.971 -30.973  0.00  0.00    +0.150 HD
ATOM     10  O   GLN A   3     -21.915 -44.833 -34.063  0.00  0.00    -0.273 OA
BRANCH   7  11
ATOM     11  CA  GLN A   3     -22.883 -46.312 -32.438  0.00  0.00    +0.149 C 
BRANCH  11  13
ATOM     12  C   PRO A   2     -21.119 -47.784 -31.662  0.00  0.00    +0.241 C 
ATOM     13  N   GLN A   3     -22.269 -47.157 -31.418  0.00  0.00    -0.297 N 
ATOM     14  H   GLN A   3     -22.733 -47.270 -30.494  0.00  0.00    +0.150 HD
ATOM     15  O   PRO A   2     -20.518 -47.667 -32.726  0.00  0.00    -0.273 OA
BRANCH  12  21
ATOM     16  C   GLN A   1     -20.368 -46.812 -28.939  0.00  0.00    +0.241 C 
ATOM     17  N   PRO A   2     -20.723 -48.078 -29.198  0.00  0.00    -0.272 N 
ATOM     18  CD  PRO A   2     -21.109 -49.125 -28.229  0.00  0.00    +0.094 C 
ATOM     19  CG  PRO A   2     -21.061 -50.390 -29.038  0.00  0.00    +0.024 C 
ATOM     20  CB  PRO A   2     -21.192 -49.990 -30.466  0.00  0.00    +0.031 C 
ATOM     21  CA  PRO A   2     -20.518 -48.626 -30.539  0.00  0.00    +0.152 C 
ATOM     22  O   GLN A   1     -19.827 -46.084 -29.780  0.00  0.00    -0.273 OA
BRANCH  16  23
ATOM     23  CA  GLN A   1     -20.635 -46.296 -27.541  0.00  0.00    +0.145 C 
BRANCH  23  24
ATOM     24  N   GLN A   1     -19.418 -45.848 -26.870  0.00  0.00    -0.238 NA
ATOM     25  H   GLN A   1     -19.034 -44.908 -27.094  0.00  0.00    +0.142 HD
ENDBRANCH  23  24
BRANCH  23  26
ATOM     26  CB  GLN A   1     -21.629 -45.144 -27.627  0.00  0.00    +0.036 C 
BRANCH  26  27
ATOM     27  CG  GLN A   1     -22.174 -44.776 -26.278  0.00  0.00    +0.087 C 
BRANCH  27  28
ATOM     28  CD  GLN A   1     -23.001 -45.906 -25.691  0.00  0.00    +0.219 C 
ATOM     29  NE2 GLN A   1     -23.002 -45.994 -24.395  0.00  0.00    -0.329 N 
ATOM     30 HE21 GLN A   1     -22.502 -45.282 -23.825  0.00  0.00    +0.145 HD
ATOM     31 HE22 GLN A   1     -23.503 -46.776 -23.927  0.00  0.00    +0.145 HD
ATOM     32  OE1 GLN A   1     -23.576 -46.721 -26.409  0.00  0.00    -0.275 OA
ENDBRANCH  27  28
ENDBRANCH  26  27
ENDBRANCH  23  26
ENDBRANCH  16  23
ENDBRANCH  12  21
ENDBRANCH  11  13
BRANCH  11  33
ATOM     33  CB  GLN A   3     -24.222 -45.718 -31.965  0.00  0.00    +0.039 C 
BRANCH  33  34
ATOM     34  CG  GLN A   3     -24.919 -44.897 -33.051  0.00  0.00    +0.087 C 
BRANCH  34  35
ATOM     35  CD  GLN A   3     -26.364 -44.516 -32.746  0.00  0.00    +0.219 C 
ATOM     36  NE2 GLN A   3     -26.719 -44.467 -31.480  0.00  0.00    -0.329 N 
ATOM     37 HE21 GLN A   3     -26.027 -44.691 -30.737  0.00  0.00    +0.145 HD
ATOM     38 HE22 GLN A   3     -27.692 -44.204 -31.223  0.00  0.00    +0.145 HD
ATOM     39  OE1 GLN A   3     -27.146 -44.260 -33.660  0.00  0.00    -0.275 OA
ENDBRANCH  34  35
ENDBRANCH  33  34
ENDBRANCH  11  33
ENDBRANCH   7  11
ENDBRANCH   6   8
BRANCH   6  40
ATOM     40  CB  ARG A   4     -19.810 -42.788 -31.112  0.00  0.00    +0.033 C 
BRANCH  40  41
ATOM     41  CG  ARG A   4     -20.959 -42.005 -30.486  0.00  0.00    +0.045 C 
BRANCH  41  42
ATOM     42  CD  ARG A   4     -20.454 -40.762 -29.778  0.00  0.00    +0.174 C 
BRANCH  42  43
ATOM     43  NE  ARG A   4     -20.105 -39.750 -30.771  0.00  0.00    -0.265 N 
ATOM     44  CZ  ARG A   4     -19.126 -38.845 -30.677  0.00  0.00    +0.342 C 
ATOM     45  NH2 ARG A   4     -18.366 -38.741 -29.591  0.00  0.00    -0.292 N 
ATOM     46 HH21 ARG A   4     -18.525 -39.375 -28.782  0.00  0.00    +0.255 HD
ATOM     47 HH22 ARG A   4     -17.612 -38.026 -29.550  0.00  0.00    +0.255 HD
ATOM     48  NH1 ARG A   4     -18.938 -38.015 -31.702  0.00  0.00    -0.292 N 
ATOM     49 HH11 ARG A   4     -18.185 -37.299 -31.660  0.00  0.00    +0.255 HD
ATOM     50 HH12 ARG A   4     -19.545 -38.083 -32.544  0.00  0.00    +0.255 HD
ATOM     51  HE  ARG A   4     -20.676 -39.732 -31.640  0.00  0.00    +0.259 HD
ENDBRANCH  42  43
ENDBRANCH  41  42
ENDBRANCH  40  41
ENDBRANCH   6  40
ENDBRANCH   2   6
ENDBRANCH   1   3
BRANCH   1  52
ATOM     52  C   ARG A   5     -17.878 -45.948 -35.163  0.00  0.00    +0.241 C 
ATOM     53  N   GLU A   6     -19.160 -46.124 -35.472  0.00  0.00    -0.297 N 
ATOM     54  H   GLU A   6     -19.864 -46.213 -34.712  0.00  0.00    +0.150 HD
ATOM     55  O   ARG A   5     -17.008 -45.801 -36.022  0.00  0.00    -0.273 OA
BRANCH  53  56
ATOM     56  CA  GLU A   6     -19.588 -46.193 -36.859  0.00  0.00    +0.149 C 
BRANCH  56  57
ATOM     57  C   GLU A   6     -19.273 -44.913 -37.632  0.00  0.00    +0.241 C 
ATOM     58  N   THR A   7     -19.168 -43.784 -36.927  0.00  0.00    -0.295 N 
ATOM     59  H   THR A   7     -19.291 -43.809 -35.895  0.00  0.00    +0.150 HD
ATOM     60  O   GLU A   6     -19.112 -44.952 -38.863  0.00  0.00    -0.273 OA
BRANCH  58  61
ATOM     61  CA  THR A   7     -18.882 -42.512 -37.591  0.00  0.00    +0.176 C 
BRANCH  61  62
ATOM     62  C   THR A   7     -17.488 -42.452 -38.218  0.00  0.00    +0.243 C 
ATOM     63  N   LEU A   8     -16.600 -43.372 -37.847  0.00  0.00    -0.297 N 
ATOM     64  H   LEU A   8     -16.891 -44.114 -37.179  0.00  0.00    +0.150 HD
ATOM     65  O   THR A   7     -17.221 -41.572 -39.024  0.00  0.00    -0.273 OA
BRANCH  63  66
ATOM     66  CA  LEU A   8     -15.225 -43.370 -38.353  0.00  0.00    +0.149 C 
BRANCH  66  67
ATOM     67  C   LEU A   8     -14.983 -44.353 -39.475  0.00  0.00    +0.241 C 
ATOM     68  O   LEU A   8     -13.845 -44.529 -39.907  0.00  0.00    -0.273 OA
ATOM     69  N   ILE A   9     -16.040 -45.008 -39.961  0.00  0.00    -0.298 N 
ATOM     70  H   ILE A   9     -16.994 -44.752 -39.635  0.00  0.00    +0.150 HD
BRANCH  69  71
ATOM     71  CA  ILE A   9     -15.880 -46.076 -40.940  0.00  0.00    +0.137 C 
BRANCH  71  72
ATOM     72  CB  ILE A   9     -16.702 -47.321 -40.569  0.00  0.00    +0.026 C 
ATOM     73  CG2 ILE A   9     -16.279 -48.480 -41.466  0.00  0.00    +0.002 C 
BRANCH  72  74
ATOM     74  CG1 ILE A   9     -16.556 -47.689 -39.074  0.00  0.00    +0.002 C 
ATOM     75  CD1 ILE A   9     -15.134 -47.850 -38.563  0.00  0.00    +0.000 C 
ENDBRANCH  72  74
ENDBRANCH  71  72
BRANCH  71  76
ATOM     76  C   ILE A   9     -16.260 -45.589 -42.339  0.00  0.00    +0.227 C 
ATOM     77  O   ILE A   9     -17.429 -45.295 -42.613  0.00  0.00    -0.286 OA
ENDBRANCH  71  76
ENDBRANCH  69  71
ENDBRANCH  66  67
BRANCH  66  78
ATOM     78  CB  LEU A   8     -14.255 -43.611 -37.196  0.00  0.00    +0.029 C 
BRANCH  78  79
ATOM     79  CG  LEU A   8     -14.335 -42.577 -36.063  0.00  0.00    +0.002 C 
ATOM     80  CD2 LEU A   8     -13.157 -42.770 -35.124  0.00  0.00    +0.000 C 
ATOM     81  CD1 LEU A   8     -14.360 -41.152 -36.590  0.00  0.00    +0.000 C 
ENDBRANCH  78  79
ENDBRANCH  66  78
ENDBRANCH  63  66
ENDBRANCH  61  62
BRANCH  61  82
ATOM     82  CB  THR A   7     -19.039 -41.298 -36.659  0.00  0.00    +0.137 C 
ATOM     83  CG2 THR A   7     -20.414 -41.268 -36.040  0.00  0.00    +0.034 C 
BRANCH  82  84
ATOM     84  OG1 THR A   7     -17.997 -41.265 -35.665  0.00  0.00    -0.382 OA
ATOM     85  HG1 THR A   7     -18.037 -42.090 -35.119  0.00  0.00    +0.210 HD
ENDBRANCH  82  84
ENDBRANCH  61  82
ENDBRANCH  58  61
ENDBRANCH  56  57
BRANCH  56  86
ATOM     86  CB  GLU A   6     -21.103 -46.468 -36.941  0.00  0.00    +0.041 C 
BRANCH  86  87
ATOM     87  CG  GLU A   6     -21.600 -47.789 -36.348  0.00  0.00    +0.116 C 
BRANCH  87  88
ATOM     88  CD  GLU A   6     -23.123 -47.856 -36.203  0.00  0.00    +0.365 C 
ATOM     89  OE2 GLU A   6     -23.598 -48.666 -35.388  0.00  0.00    -0.246 OA
ATOM     90  OE1 GLU A   6     -23.837 -47.100 -36.886  0.00  0.00    -0.246 OA
ENDBRANCH  87  88
ENDBRANCH  86  87
ENDBRANCH  56  86
ENDBRANCH  53  56
ENDBRANCH   1  52
BRANCH   1  91
ATOM     91  CB  ARG A   5     -17.218 -47.346 -33.204  0.00  0.00    +0.033 C 
BRANCH  91  92
ATOM     92  CG  ARG A   5     -16.835 -47.441 -31.739  0.00  0.00    +0.045 C 
BRANCH  92  93
ATOM     93  CD  ARG A   5     -16.585 -48.854 -31.264  0.00  0.00    +0.174 C 
BRANCH  93  94
ATOM     94  NE  ARG A   5     -16.553 -48.873 -29.810  0.00  0.00    -0.265 N 
ATOM     95  CZ  ARG A   5     -16.877 -49.911 -29.049  0.00  0.00    +0.342 C 
ATOM     96  NH2 ARG A   5     -16.834 -49.787 -27.730  0.00  0.00    -0.292 N 
ATOM     97 HH21 ARG A   5     -17.086 -50.593 -27.123  0.00  0.00    +0.255 HD
ATOM     98 HH22 ARG A   5     -16.549 -48.883 -27.302  0.00  0.00    +0.255 HD
ATOM     99  NH1 ARG A   5     -17.242 -51.064 -29.595  0.00  0.00    -0.292 N 
ATOM    100 HH11 ARG A   5     -17.494 -51.870 -28.988  0.00  0.00    +0.255 HD
ATOM    101 HH12 ARG A   5     -17.276 -51.161 -30.630  0.00  0.00    +0.255 HD
ATOM    102  HE  ARG A   5     -16.252 -48.002 -29.327  0.00  0.00    +0.259 HD
ENDBRANCH  93  94
ENDBRANCH  92  93
ENDBRANCH  91  92
ENDBRANCH   1  91
TORSDOF 40
REMARK  Name = ../refined-set-2016/4whs/4whs_pocket.pdb
REMARK  95 active torsions:
REMARK  status: ('A' for Active; 'I' for Inactive)
REMARK    1  A    between atoms: _1  and  _3
REMARK    2  A    between atoms: _3  and  _4
REMARK    3  A    between atoms: _3  and  _6
REMARK    4  A    between atoms: _6  and  _7
REMARK    5  A    between atoms: _12  and  _13
REMARK    6  A    between atoms: _15  and  _17
REMARK    7  A    between atoms: _17  and  _18
REMARK    8  A    between atoms: _17  and  _20
REMARK    9  A    between atoms: _20  and  _21
REMARK   10  A    between atoms: _27  and  _29
REMARK   11  A    between atoms: _29  and  _30
REMARK   12  A    between atoms: _29  and  _32
REMARK   13  A    between atoms: _32  and  _33
REMARK   14  A    between atoms: _36  and  _38
REMARK   15  A    between atoms: _38  and  _39
REMARK   16  A    between atoms: _38  and  _41
REMARK   17  A    between atoms: _41  and  _42
REMARK   18  A    between atoms: _42  and  _43
REMARK   19  A    between atoms: _46  and  _48
REMARK   20  A    between atoms: _48  and  _49
REMARK   21  A    between atoms: _52  and  _54
REMARK   22  A    between atoms: _54  and  _55
REMARK   23  A    between atoms: _54  and  _57
REMARK   24  A    between atoms: _57  and  _58
REMARK   25  A    between atoms: _58  and  _59
REMARK   26  A    between atoms: _64  and  _66
REMARK   27  A    between atoms: _66  and  _67
REMARK   28  A    between atoms: _70  and  _72
REMARK   29  A    between atoms: _72  and  _73
REMARK   30  A    between atoms: _72  and  _75
REMARK   31  A    between atoms: _75  and  _76
REMARK   32  A    between atoms: _81  and  _83
REMARK   33  A    between atoms: _83  and  _84
REMARK   34  A    between atoms: _87  and  _89
REMARK   35  A    between atoms: _89  and  _90
REMARK   36  A    between atoms: _89  and  _92
REMARK   37  A    between atoms: _92  and  _93
REMARK   38  A    between atoms: _93  and  _94
REMARK   39  A    between atoms: _94  and  _95
REMARK   40  A    between atoms: _95  and  _96
REMARK   41  A    between atoms: _100  and  _102
REMARK   42  A    between atoms: _102  and  _103
REMARK   43  A    between atoms: _102  and  _105
REMARK   44  A    between atoms: _107  and  _109
REMARK   45  A    between atoms: _109  and  _110
REMARK   46  A    between atoms: _109  and  _112
REMARK   47  A    between atoms: _112  and  _113
REMARK   48  A    between atoms: _116  and  _118
REMARK   49  A    between atoms: _118  and  _119
REMARK   50  A    between atoms: _118  and  _121
REMARK   51  A    between atoms: _121  and  _122
REMARK   52  A    between atoms: _127  and  _129
REMARK   53  A    between atoms: _129  and  _130
REMARK   54  A    between atoms: _129  and  _132
REMARK   55  A    between atoms: _132  and  _133
REMARK   56  A    between atoms: _136  and  _138
REMARK   57  A    between atoms: _138  and  _139
REMARK   58  A    between atoms: _138  and  _141
REMARK   59  A    between atoms: _141  and  _142
REMARK   60  A    between atoms: _142  and  _143
REMARK   61  A    between atoms: _149  and  _150
REMARK   62  A    between atoms: _155  and  _157
REMARK   63  A    between atoms: _157  and  _158
REMARK   64  A    between atoms: _157  and  _160
REMARK   65  A    between atoms: _160  and  _161
REMARK   66  A    between atoms: _161  and  _162
REMARK   67  A    between atoms: _167  and  _169
REMARK   68  A    between atoms: _169  and  _170
REMARK   69  A    between atoms: _169  and  _172
REMARK   70  A    between atoms: _172  and  _173
REMARK   71  A    between atoms: _173  and  _174
REMARK   72  A    between atoms: _174  and  _175
REMARK   73  A    between atoms: _184  and  _186
REMARK   74  A    between atoms: _186  and  _187
REMARK   75  A    between atoms: _186  and  _189
REMARK   76  A    between atoms: _189  and  _190
REMARK   77  A    between atoms: _190  and  _191
REMARK   78  A    between atoms: _191  and  _192
REMARK   79  A    between atoms: _201  and  _203
REMARK   80  A    between atoms: _203  and  _204
REMARK   81  A    between atoms: _203  and  _206
REMARK   82  A    between atoms: _206  and  _207
REMARK   83  A    between atoms: _207  and  _208
REMARK   84  A    between atoms: _211  and  _213
REMARK   85  A    between atoms: _213  and  _214
REMARK   86  A    between atoms: _213  and  _216
REMARK   87  A    between atoms: _216  and  _217
REMARK   88  A    between atoms: _220  and  _222
REMARK   89  A    between atoms: _222  and  _223
REMARK   90  A    between atoms: _222  and  _225
REMARK   91  A    between atoms: _225  and  _226
REMARK   92  A    between atoms: _229  and  _231
REMARK   93  A    between atoms: _231  and  _232
REMARK   94  A    between atoms: _231  and  _234
REMARK   95  A    between atoms: _234  and  _235
REMARK                            x       y       z     vdW  Elec       q    Type
REMARK                         _______ _______ _______ _____ _____    ______ ____
ROOT
ATOM      1  O   HOH     1     -16.304 -51.729 -39.309  0.00  0.00    +0.000 OA
ENDROOT
TORSDOF 0
REMARK  Name = ../refined-set-2016/4whs/4whs_pocket.pdb
REMARK  95 active torsions:
REMARK  status: ('A' for Active; 'I' for Inactive)
REMARK    1  A    between atoms: _1  and  _3
REMARK    2  A    between atoms: _3  and  _4
REMARK    3  A    between atoms: _3  and  _6
REMARK    4  A    between atoms: _6  and  _7
REMARK    5  A    between atoms: _12  and  _13
REMARK    6  A    between atoms: _15  and  _17
REMARK    7  A    between atoms: _17  and  _18
REMARK    8  A    between atoms: _17  and  _20
REMARK    9  A    between atoms: _20  and  _21
REMARK   10  A    between atoms: _27  and  _29
REMARK   11  A    between atoms: _29  and  _30
REMARK   12  A    between atoms: _29  and  _32
REMARK   13  A    between atoms: _32  and  _33
REMARK   14  A    between atoms: _36  and  _38
REMARK   15  A    between atoms: _38  and  _39
REMARK   16  A    between atoms: _38  and  _41
REMARK   17  A    between atoms: _41  and  _42
REMARK   18  A    between atoms: _42  and  _43
REMARK   19  A    between atoms: _46  and  _48
REMARK   20  A    between atoms: _48  and  _49
REMARK   21  A    between atoms: _52  and  _54
REMARK   22  A    between atoms: _54  and  _55
REMARK   23  A    between atoms: _54  and  _57
REMARK   24  A    between atoms: _57  and  _58
REMARK   25  A    between atoms: _58  and  _59
REMARK   26  A    between atoms: _64  and  _66
REMARK   27  A    between atoms: _66  and  _67
REMARK   28  A    between atoms: _70  and  _72
REMARK   29  A    between atoms: _72  and  _73
REMARK   30  A    between atoms: _72  and  _75
REMARK   31  A    between atoms: _75  and  _76
REMARK   32  A    between atoms: _81  and  _83
REMARK   33  A    between atoms: _83  and  _84
REMARK   34  A    between atoms: _87  and  _89
REMARK   35  A    between atoms: _89  and  _90
REMARK   36  A    between atoms: _89  and  _92
REMARK   37  A    between atoms: _92  and  _93
REMARK   38  A    between atoms: _93  and  _94
REMARK   39  A    between atoms: _94  and  _95
REMARK   40  A    between atoms: _95  and  _96
REMARK   41  A    between atoms: _100  and  _102
REMARK   42  A    between atoms: _102  and  _103
REMARK   43  A    between atoms: _102  and  _105
REMARK   44  A    between atoms: _107  and  _109
REMARK   45  A    between atoms: _109  and  _110
REMARK   46  A    between atoms: _109  and  _112
REMARK   47  A    between atoms: _112  and  _113
REMARK   48  A    between atoms: _116  and  _118
REMARK   49  A    between atoms: _118  and  _119
REMARK   50  A    between atoms: _118  and  _121
REMARK   51  A    between atoms: _121  and  _122
REMARK   52  A    between atoms: _127  and  _129
REMARK   53  A    between atoms: _129  and  _130
REMARK   54  A    between atoms: _129  and  _132
REMARK   55  A    between atoms: _132  and  _133
REMARK   56  A    between atoms: _136  and  _138
REMARK   57  A    between atoms: _138  and  _139
REMARK   58  A    between atoms: _138  and  _141
REMARK   59  A    between atoms: _141  and  _142
REMARK   60  A    between atoms: _142  and  _143
REMARK   61  A    between atoms: _149  and  _150
REMARK   62  A    between atoms: _155  and  _157
REMARK   63  A    between atoms: _157  and  _158
REMARK   64  A    between atoms: _157  and  _160
REMARK   65  A    between atoms: _160  and  _161
REMARK   66  A    between atoms: _161  and  _162
REMARK   67  A    between atoms: _167  and  _169
REMARK   68  A    between atoms: _169  and  _170
REMARK   69  A    between atoms: _169  and  _172
REMARK   70  A    between atoms: _172  and  _173
REMARK   71  A    between atoms: _173  and  _174
REMARK   72  A    between atoms: _174  and  _175
REMARK   73  A    between atoms: _184  and  _186
REMARK   74  A    between atoms: _186  and  _187
REMARK   75  A    between atoms: _186  and  _189
REMARK   76  A    between atoms: _189  and  _190
REMARK   77  A    between atoms: _190  and  _191
REMARK   78  A    between atoms: _191  and  _192
REMARK   79  A    between atoms: _201  and  _203
REMARK   80  A    between atoms: _203  and  _204
REMARK   81  A    between atoms: _203  and  _206
REMARK   82  A    between atoms: _206  and  _207
REMARK   83  A    between atoms: _207  and  _208
REMARK   84  A    between atoms: _211  and  _213
REMARK   85  A    between atoms: _213  and  _214
REMARK   86  A    between atoms: _213  and  _216
REMARK   87  A    between atoms: _216  and  _217
REMARK   88  A    between atoms: _220  and  _222
REMARK   89  A    between atoms: _222  and  _223
REMARK   90  A    between atoms: _222  and  _225
REMARK   91  A    between atoms: _225  and  _226
REMARK   92  A    between atoms: _229  and  _231
REMARK   93  A    between atoms: _231  and  _232
REMARK   94  A    between atoms: _231  and  _234
REMARK   95  A    between atoms: _234  and  _235
REMARK                            x       y       z     vdW  Elec       q    Type
REMARK                         _______ _______ _______ _____ _____    ______ ____
ROOT
ATOM      1  O   HOH     1     -16.524 -53.679 -37.220  0.00  0.00    +0.000 OA
ENDROOT
TORSDOF 0
REMARK  Name = ../refined-set-2016/4whs/4whs_pocket.pdb
REMARK  95 active torsions:
REMARK  status: ('A' for Active; 'I' for Inactive)
REMARK    1  A    between atoms: _1  and  _3
REMARK    2  A    between atoms: _3  and  _4
REMARK    3  A    between atoms: _3  and  _6
REMARK    4  A    between atoms: _6  and  _7
REMARK    5  A    between atoms: _12  and  _13
REMARK    6  A    between atoms: _15  and  _17
REMARK    7  A    between atoms: _17  and  _18
REMARK    8  A    between atoms: _17  and  _20
REMARK    9  A    between atoms: _20  and  _21
REMARK   10  A    between atoms: _27  and  _29
REMARK   11  A    between atoms: _29  and  _30
REMARK   12  A    between atoms: _29  and  _32
REMARK   13  A    between atoms: _32  and  _33
REMARK   14  A    between atoms: _36  and  _38
REMARK   15  A    between atoms: _38  and  _39
REMARK   16  A    between atoms: _38  and  _41
REMARK   17  A    between atoms: _41  and  _42
REMARK   18  A    between atoms: _42  and  _43
REMARK   19  A    between atoms: _46  and  _48
REMARK   20  A    between atoms: _48  and  _49
REMARK   21  A    between atoms: _52  and  _54
REMARK   22  A    between atoms: _54  and  _55
REMARK   23  A    between atoms: _54  and  _57
REMARK   24  A    between atoms: _57  and  _58
REMARK   25  A    between atoms: _58  and  _59
REMARK   26  A    between atoms: _64  and  _66
REMARK   27  A    between atoms: _66  and  _67
REMARK   28  A    between atoms: _70  and  _72
REMARK   29  A    between atoms: _72  and  _73
REMARK   30  A    between atoms: _72  and  _75
REMARK   31  A    between atoms: _75  and  _76
REMARK   32  A    between atoms: _81  and  _83
REMARK   33  A    between atoms: _83  and  _84
REMARK   34  A    between atoms: _87  and  _89
REMARK   35  A    between atoms: _89  and  _90
REMARK   36  A    between atoms: _89  and  _92
REMARK   37  A    between atoms: _92  and  _93
REMARK   38  A    between atoms: _93  and  _94
REMARK   39  A    between atoms: _94  and  _95
REMARK   40  A    between atoms: _95  and  _96
REMARK   41  A    between atoms: _100  and  _102
REMARK   42  A    between atoms: _102  and  _103
REMARK   43  A    between atoms: _102  and  _105
REMARK   44  A    between atoms: _107  and  _109
REMARK   45  A    between atoms: _109  and  _110
REMARK   46  A    between atoms: _109  and  _112
REMARK   47  A    between atoms: _112  and  _113
REMARK   48  A    between atoms: _116  and  _118
REMARK   49  A    between atoms: _118  and  _119
REMARK   50  A    between atoms: _118  and  _121
REMARK   51  A    between atoms: _121  and  _122
REMARK   52  A    between atoms: _127  and  _129
REMARK   53  A    between atoms: _129  and  _130
REMARK   54  A    between atoms: _129  and  _132
REMARK   55  A    between atoms: _132  and  _133
REMARK   56  A    between atoms: _136  and  _138
REMARK   57  A    between atoms: _138  and  _139
REMARK   58  A    between atoms: _138  and  _141
REMARK   59  A    between atoms: _141  and  _142
REMARK   60  A    between atoms: _142  and  _143
REMARK   61  A    between atoms: _149  and  _150
REMARK   62  A    between atoms: _155  and  _157
REMARK   63  A    between atoms: _157  and  _158
REMARK   64  A    between atoms: _157  and  _160
REMARK   65  A    between atoms: _160  and  _161
REMARK   66  A    between atoms: _161  and  _162
REMARK   67  A    between atoms: _167  and  _169
REMARK   68  A    between atoms: _169  and  _170
REMARK   69  A    between atoms: _169  and  _172
REMARK   70  A    between atoms: _172  and  _173
REMARK   71  A    between atoms: _173  and  _174
REMARK   72  A    between atoms: _174  and  _175
REMARK   73  A    between atoms: _184  and  _186
REMARK   74  A    between atoms: _186  and  _187
REMARK   75  A    between atoms: _186  and  _189
REMARK   76  A    between atoms: _189  and  _190
REMARK   77  A    between atoms: _190  and  _191
REMARK   78  A    between atoms: _191  and  _192
REMARK   79  A    between atoms: _201  and  _203
REMARK   80  A    between atoms: _203  and  _204
REMARK   81  A    between atoms: _203  and  _206
REMARK   82  A    between atoms: _206  and  _207
REMARK   83  A    between atoms: _207  and  _208
REMARK   84  A    between atoms: _211  and  _213
REMARK   85  A    between atoms: _213  and  _214
REMARK   86  A    between atoms: _213  and  _216
REMARK   87  A    between atoms: _216  and  _217
REMARK   88  A    between atoms: _220  and  _222
REMARK   89  A    between atoms: _222  and  _223
REMARK   90  A    between atoms: _222  and  _225
REMARK   91  A    between atoms: _225  and  _226
REMARK   92  A    between atoms: _229  and  _231
REMARK   93  A    between atoms: _231  and  _232
REMARK   94  A    between atoms: _231  and  _234
REMARK   95  A    between atoms: _234  and  _235
REMARK                            x       y       z     vdW  Elec       q    Type
REMARK                         _______ _______ _______ _____ _____    ______ ____
ROOT
ATOM      1  O   HOH     1     -14.024 -51.494 -32.091  0.00  0.00    +0.000 OA
ENDROOT
TORSDOF 0
REMARK  Name = ../refined-set-2016/4whs/4whs_pocket.pdb
REMARK  95 active torsions:
REMARK  status: ('A' for Active; 'I' for Inactive)
REMARK    1  A    between atoms: _1  and  _3
REMARK    2  A    between atoms: _3  and  _4
REMARK    3  A    between atoms: _3  and  _6
REMARK    4  A    between atoms: _6  and  _7
REMARK    5  A    between atoms: _12  and  _13
REMARK    6  A    between atoms: _15  and  _17
REMARK    7  A    between atoms: _17  and  _18
REMARK    8  A    between atoms: _17  and  _20
REMARK    9  A    between atoms: _20  and  _21
REMARK   10  A    between atoms: _27  and  _29
REMARK   11  A    between atoms: _29  and  _30
REMARK   12  A    between atoms: _29  and  _32
REMARK   13  A    between atoms: _32  and  _33
REMARK   14  A    between atoms: _36  and  _38
REMARK   15  A    between atoms: _38  and  _39
REMARK   16  A    between atoms: _38  and  _41
REMARK   17  A    between atoms: _41  and  _42
REMARK   18  A    between atoms: _42  and  _43
REMARK   19  A    between atoms: _46  and  _48
REMARK   20  A    between atoms: _48  and  _49
REMARK   21  A    between atoms: _52  and  _54
REMARK   22  A    between atoms: _54  and  _55
REMARK   23  A    between atoms: _54  and  _57
REMARK   24  A    between atoms: _57  and  _58
REMARK   25  A    between atoms: _58  and  _59
REMARK   26  A    between atoms: _64  and  _66
REMARK   27  A    between atoms: _66  and  _67
REMARK   28  A    between atoms: _70  and  _72
REMARK   29  A    between atoms: _72  and  _73
REMARK   30  A    between atoms: _72  and  _75
REMARK   31  A    between atoms: _75  and  _76
REMARK   32  A    between atoms: _81  and  _83
REMARK   33  A    between atoms: _83  and  _84
REMARK   34  A    between atoms: _87  and  _89
REMARK   35  A    between atoms: _89  and  _90
REMARK   36  A    between atoms: _89  and  _92
REMARK   37  A    between atoms: _92  and  _93
REMARK   38  A    between atoms: _93  and  _94
REMARK   39  A    between atoms: _94  and  _95
REMARK   40  A    between atoms: _95  and  _96
REMARK   41  A    between atoms: _100  and  _102
REMARK   42  A    between atoms: _102  and  _103
REMARK   43  A    between atoms: _102  and  _105
REMARK   44  A    between atoms: _107  and  _109
REMARK   45  A    between atoms: _109  and  _110
REMARK   46  A    between atoms: _109  and  _112
REMARK   47  A    between atoms: _112  and  _113
REMARK   48  A    between atoms: _116  and  _118
REMARK   49  A    between atoms: _118  and  _119
REMARK   50  A    between atoms: _118  and  _121
REMARK   51  A    between atoms: _121  and  _122
REMARK   52  A    between atoms: _127  and  _129
REMARK   53  A    between atoms: _129  and  _130
REMARK   54  A    between atoms: _129  and  _132
REMARK   55  A    between atoms: _132  and  _133
REMARK   56  A    between atoms: _136  and  _138
REMARK   57  A    between atoms: _138  and  _139
REMARK   58  A    between atoms: _138  and  _141
REMARK   59  A    between atoms: _141  and  _142
REMARK   60  A    between atoms: _142  and  _143
REMARK   61  A    between atoms: _149  and  _150
REMARK   62  A    between atoms: _155  and  _157
REMARK   63  A    between atoms: _157  and  _158
REMARK   64  A    between atoms: _157  and  _160
REMARK   65  A    between atoms: _160  and  _161
REMARK   66  A    between atoms: _161  and  _162
REMARK   67  A    between atoms: _167  and  _169
REMARK   68  A    between atoms: _169  and  _170
REMARK   69  A    between atoms: _169  and  _172
REMARK   70  A    between atoms: _172  and  _173
REMARK   71  A    between atoms: _173  and  _174
REMARK   72  A    between atoms: _174  and  _175
REMARK   73  A    between atoms: _184  and  _186
REMARK   74  A    between atoms: _186  and  _187
REMARK   75  A    between atoms: _186  and  _189
REMARK   76  A    between atoms: _189  and  _190
REMARK   77  A    between atoms: _190  and  _191
REMARK   78  A    between atoms: _191  and  _192
REMARK   79  A    between atoms: _201  and  _203
REMARK   80  A    between atoms: _203  and  _204
REMARK   81  A    between atoms: _203  and  _206
REMARK   82  A    between atoms: _206  and  _207
REMARK   83  A    between atoms: _207  and  _208
REMARK   84  A    between atoms: _211  and  _213
REMARK   85  A    between atoms: _213  and  _214
REMARK   86  A    between atoms: _213  and  _216
REMARK   87  A    between atoms: _216  and  _217
REMARK   88  A    between atoms: _220  and  _222
REMARK   89  A    between atoms: _222  and  _223
REMARK   90  A    between atoms: _222  and  _225
REMARK   91  A    between atoms: _225  and  _226
REMARK   92  A    between atoms: _229  and  _231
REMARK   93  A    between atoms: _231  and  _232
REMARK   94  A    between atoms: _231  and  _234
REMARK   95  A    between atoms: _234  and  _235
REMARK                            x       y       z     vdW  Elec       q    Type
REMARK                         _______ _______ _______ _____ _____    ______ ____
ROOT
ATOM      1  O   HOH     1     -20.289 -49.404 -39.607  0.00  0.00    +0.000 OA
ENDROOT
TORSDOF 0
REMARK  Name = ../refined-set-2016/4whs/4whs_pocket.pdb
REMARK  95 active torsions:
REMARK  status: ('A' for Active; 'I' for Inactive)
REMARK    1  A    between atoms: _1  and  _3
REMARK    2  A    between atoms: _3  and  _4
REMARK    3  A    between atoms: _3  and  _6
REMARK    4  A    between atoms: _6  and  _7
REMARK    5  A    between atoms: _12  and  _13
REMARK    6  A    between atoms: _15  and  _17
REMARK    7  A    between atoms: _17  and  _18
REMARK    8  A    between atoms: _17  and  _20
REMARK    9  A    between atoms: _20  and  _21
REMARK   10  A    between atoms: _27  and  _29
REMARK   11  A    between atoms: _29  and  _30
REMARK   12  A    between atoms: _29  and  _32
REMARK   13  A    between atoms: _32  and  _33
REMARK   14  A    between atoms: _36  and  _38
REMARK   15  A    between atoms: _38  and  _39
REMARK   16  A    between atoms: _38  and  _41
REMARK   17  A    between atoms: _41  and  _42
REMARK   18  A    between atoms: _42  and  _43
REMARK   19  A    between atoms: _46  and  _48
REMARK   20  A    between atoms: _48  and  _49
REMARK   21  A    between atoms: _52  and  _54
REMARK   22  A    between atoms: _54  and  _55
REMARK   23  A    between atoms: _54  and  _57
REMARK   24  A    between atoms: _57  and  _58
REMARK   25  A    between atoms: _58  and  _59
REMARK   26  A    between atoms: _64  and  _66
REMARK   27  A    between atoms: _66  and  _67
REMARK   28  A    between atoms: _70  and  _72
REMARK   29  A    between atoms: _72  and  _73
REMARK   30  A    between atoms: _72  and  _75
REMARK   31  A    between atoms: _75  and  _76
REMARK   32  A    between atoms: _81  and  _83
REMARK   33  A    between atoms: _83  and  _84
REMARK   34  A    between atoms: _87  and  _89
REMARK   35  A    between atoms: _89  and  _90
REMARK   36  A    between atoms: _89  and  _92
REMARK   37  A    between atoms: _92  and  _93
REMARK   38  A    between atoms: _93  and  _94
REMARK   39  A    between atoms: _94  and  _95
REMARK   40  A    between atoms: _95  and  _96
REMARK   41  A    between atoms: _100  and  _102
REMARK   42  A    between atoms: _102  and  _103
REMARK   43  A    between atoms: _102  and  _105
REMARK   44  A    between atoms: _107  and  _109
REMARK   45  A    between atoms: _109  and  _110
REMARK   46  A    between atoms: _109  and  _112
REMARK   47  A    between atoms: _112  and  _113
REMARK   48  A    between atoms: _116  and  _118
REMARK   49  A    between atoms: _118  and  _119
REMARK   50  A    between atoms: _118  and  _121
REMARK   51  A    between atoms: _121  and  _122
REMARK   52  A    between atoms: _127  and  _129
REMARK   53  A    between atoms: _129  and  _130
REMARK   54  A    between atoms: _129  and  _132
REMARK   55  A    between atoms: _132  and  _133
REMARK   56  A    between atoms: _136  and  _138
REMARK   57  A    between atoms: _138  and  _139
REMARK   58  A    between atoms: _138  and  _141
REMARK   59  A    between atoms: _141  and  _142
REMARK   60  A    between atoms: _142  and  _143
REMARK   61  A    between atoms: _149  and  _150
REMARK   62  A    between atoms: _155  and  _157
REMARK   63  A    between atoms: _157  and  _158
REMARK   64  A    between atoms: _157  and  _160
REMARK   65  A    between atoms: _160  and  _161
REMARK   66  A    between atoms: _161  and  _162
REMARK   67  A    between atoms: _167  and  _169
REMARK   68  A    between atoms: _169  and  _170
REMARK   69  A    between atoms: _169  and  _172
REMARK   70  A    between atoms: _172  and  _173
REMARK   71  A    between atoms: _173  and  _174
REMARK   72  A    between atoms: _174  and  _175
REMARK   73  A    between atoms: _184  and  _186
REMARK   74  A    between atoms: _186  and  _187
REMARK   75  A    between atoms: _186  and  _189
REMARK   76  A    between atoms: _189  and  _190
REMARK   77  A    between atoms: _190  and  _191
REMARK   78  A    between atoms: _191  and  _192
REMARK   79  A    between atoms: _201  and  _203
REMARK   80  A    between atoms: _203  and  _204
REMARK   81  A    between atoms: _203  and  _206
REMARK   82  A    between atoms: _206  and  _207
REMARK   83  A    between atoms: _207  and  _208
REMARK   84  A    between atoms: _211  and  _213
REMARK   85  A    between atoms: _213  and  _214
REMARK   86  A    between atoms: _213  and  _216
REMARK   87  A    between atoms: _216  and  _217
REMARK   88  A    between atoms: _220  and  _222
REMARK   89  A    between atoms: _222  and  _223
REMARK   90  A    between atoms: _222  and  _225
REMARK   91  A    between atoms: _225  and  _226
REMARK   92  A    between atoms: _229  and  _231
REMARK   93  A    between atoms: _231  and  _232
REMARK   94  A    between atoms: _231  and  _234
REMARK   95  A    between atoms: _234  and  _235
REMARK                            x       y       z     vdW  Elec       q    Type
REMARK                         _______ _______ _______ _____ _____    ______ ____
ROOT
ATOM      1  O   HOH     1     -24.080 -47.392 -29.104  0.00  0.00    +0.000 OA
ENDROOT
TORSDOF 0
REMARK  Name = ../refined-set-2016/4whs/4whs_pocket.pdb
REMARK  95 active torsions:
REMARK  status: ('A' for Active; 'I' for Inactive)
REMARK    1  A    between atoms: _1  and  _3
REMARK    2  A    between atoms: _3  and  _4
REMARK    3  A    between atoms: _3  and  _6
REMARK    4  A    between atoms: _6  and  _7
REMARK    5  A    between atoms: _12  and  _13
REMARK    6  A    between atoms: _15  and  _17
REMARK    7  A    between atoms: _17  and  _18
REMARK    8  A    between atoms: _17  and  _20
REMARK    9  A    between atoms: _20  and  _21
REMARK   10  A    between atoms: _27  and  _29
REMARK   11  A    between atoms: _29  and  _30
REMARK   12  A    between atoms: _29  and  _32
REMARK   13  A    between atoms: _32  and  _33
REMARK   14  A    between atoms: _36  and  _38
REMARK   15  A    between atoms: _38  and  _39
REMARK   16  A    between atoms: _38  and  _41
REMARK   17  A    between atoms: _41  and  _42
REMARK   18  A    between atoms: _42  and  _43
REMARK   19  A    between atoms: _46  and  _48
REMARK   20  A    between atoms: _48  and  _49
REMARK   21  A    between atoms: _52  and  _54
REMARK   22  A    between atoms: _54  and  _55
REMARK   23  A    between atoms: _54  and  _57
REMARK   24  A    between atoms: _57  and  _58
REMARK   25  A    between atoms: _58  and  _59
REMARK   26  A    between atoms: _64  and  _66
REMARK   27  A    between atoms: _66  and  _67
REMARK   28  A    between atoms: _70  and  _72
REMARK   29  A    between atoms: _72  and  _73
REMARK   30  A    between atoms: _72  and  _75
REMARK   31  A    between atoms: _75  and  _76
REMARK   32  A    between atoms: _81  and  _83
REMARK   33  A    between atoms: _83  and  _84
REMARK   34  A    between atoms: _87  and  _89
REMARK   35  A    between atoms: _89  and  _90
REMARK   36  A    between atoms: _89  and  _92
REMARK   37  A    between atoms: _92  and  _93
REMARK   38  A    between atoms: _93  and  _94
REMARK   39  A    between atoms: _94  and  _95
REMARK   40  A    between atoms: _95  and  _96
REMARK   41  A    between atoms: _100  and  _102
REMARK   42  A    between atoms: _102  and  _103
REMARK   43  A    between atoms: _102  and  _105
REMARK   44  A    between atoms: _107  and  _109
REMARK   45  A    between atoms: _109  and  _110
REMARK   46  A    between atoms: _109  and  _112
REMARK   47  A    between atoms: _112  and  _113
REMARK   48  A    between atoms: _116  and  _118
REMARK   49  A    between atoms: _118  and  _119
REMARK   50  A    between atoms: _118  and  _121
REMARK   51  A    between atoms: _121  and  _122
REMARK   52  A    between atoms: _127  and  _129
REMARK   53  A    between atoms: _129  and  _130
REMARK   54  A    between atoms: _129  and  _132
REMARK   55  A    between atoms: _132  and  _133
REMARK   56  A    between atoms: _136  and  _138
REMARK   57  A    between atoms: _138  and  _139
REMARK   58  A    between atoms: _138  and  _141
REMARK   59  A    between atoms: _141  and  _142
REMARK   60  A    between atoms: _142  and  _143
REMARK   61  A    between atoms: _149  and  _150
REMARK   62  A    between atoms: _155  and  _157
REMARK   63  A    between atoms: _157  and  _158
REMARK   64  A    between atoms: _157  and  _160
REMARK   65  A    between atoms: _160  and  _161
REMARK   66  A    between atoms: _161  and  _162
REMARK   67  A    between atoms: _167  and  _169
REMARK   68  A    between atoms: _169  and  _170
REMARK   69  A    between atoms: _169  and  _172
REMARK   70  A    between atoms: _172  and  _173
REMARK   71  A    between atoms: _173  and  _174
REMARK   72  A    between atoms: _174  and  _175
REMARK   73  A    between atoms: _184  and  _186
REMARK   74  A    between atoms: _186  and  _187
REMARK   75  A    between atoms: _186  and  _189
REMARK   76  A    between atoms: _189  and  _190
REMARK   77  A    between atoms: _190  and  _191
REMARK   78  A    between atoms: _191  and  _192
REMARK   79  A    between atoms: _201  and  _203
REMARK   80  A    between atoms: _203  and  _204
REMARK   81  A    between atoms: _203  and  _206
REMARK   82  A    between atoms: _206  and  _207
REMARK   83  A    between atoms: _207  and  _208
REMARK   84  A    between atoms: _211  and  _213
REMARK   85  A    between atoms: _213  and  _214
REMARK   86  A    between atoms: _213  and  _216
REMARK   87  A    between atoms: _216  and  _217
REMARK   88  A    between atoms: _220  and  _222
REMARK   89  A    between atoms: _222  and  _223
REMARK   90  A    between atoms: _222  and  _225
REMARK   91  A    between atoms: _225  and  _226
REMARK   92  A    between atoms: _229  and  _231
REMARK   93  A    between atoms: _231  and  _232
REMARK   94  A    between atoms: _231  and  _234
REMARK   95  A    between atoms: _234  and  _235
REMARK                            x       y       z     vdW  Elec       q    Type
REMARK                         _______ _______ _______ _____ _____    ______ ____
ROOT
ATOM      1  O   HOH     1     -18.036 -52.334 -41.569  0.00  0.00    +0.000 OA
ENDROOT
TORSDOF 0
REMARK  Name = ../refined-set-2016/4whs/4whs_pocket.pdb
REMARK  95 active torsions:
REMARK  status: ('A' for Active; 'I' for Inactive)
REMARK    1  A    between atoms: _1  and  _3
REMARK    2  A    between atoms: _3  and  _4
REMARK    3  A    between atoms: _3  and  _6
REMARK    4  A    between atoms: _6  and  _7
REMARK    5  A    between atoms: _12  and  _13
REMARK    6  A    between atoms: _15  and  _17
REMARK    7  A    between atoms: _17  and  _18
REMARK    8  A    between atoms: _17  and  _20
REMARK    9  A    between atoms: _20  and  _21
REMARK   10  A    between atoms: _27  and  _29
REMARK   11  A    between atoms: _29  and  _30
REMARK   12  A    between atoms: _29  and  _32
REMARK   13  A    between atoms: _32  and  _33
REMARK   14  A    between atoms: _36  and  _38
REMARK   15  A    between atoms: _38  and  _39
REMARK   16  A    between atoms: _38  and  _41
REMARK   17  A    between atoms: _41  and  _42
REMARK   18  A    between atoms: _42  and  _43
REMARK   19  A    between atoms: _46  and  _48
REMARK   20  A    between atoms: _48  and  _49
REMARK   21  A    between atoms: _52  and  _54
REMARK   22  A    between atoms: _54  and  _55
REMARK   23  A    between atoms: _54  and  _57
REMARK   24  A    between atoms: _57  and  _58
REMARK   25  A    between atoms: _58  and  _59
REMARK   26  A    between atoms: _64  and  _66
REMARK   27  A    between atoms: _66  and  _67
REMARK   28  A    between atoms: _70  and  _72
REMARK   29  A    between atoms: _72  and  _73
REMARK   30  A    between atoms: _72  and  _75
REMARK   31  A    between atoms: _75  and  _76
REMARK   32  A    between atoms: _81  and  _83
REMARK   33  A    between atoms: _83  and  _84
REMARK   34  A    between atoms: _87  and  _89
REMARK   35  A    between atoms: _89  and  _90
REMARK   36  A    between atoms: _89  and  _92
REMARK   37  A    between atoms: _92  and  _93
REMARK   38  A    between atoms: _93  and  _94
REMARK   39  A    between atoms: _94  and  _95
REMARK   40  A    between atoms: _95  and  _96
REMARK   41  A    between atoms: _100  and  _102
REMARK   42  A    between atoms: _102  and  _103
REMARK   43  A    between atoms: _102  and  _105
REMARK   44  A    between atoms: _107  and  _109
REMARK   45  A    between atoms: _109  and  _110
REMARK   46  A    between atoms: _109  and  _112
REMARK   47  A    between atoms: _112  and  _113
REMARK   48  A    between atoms: _116  and  _118
REMARK   49  A    between atoms: _118  and  _119
REMARK   50  A    between atoms: _118  and  _121
REMARK   51  A    between atoms: _121  and  _122
REMARK   52  A    between atoms: _127  and  _129
REMARK   53  A    between atoms: _129  and  _130
REMARK   54  A    between atoms: _129  and  _132
REMARK   55  A    between atoms: _132  and  _133
REMARK   56  A    between atoms: _136  and  _138
REMARK   57  A    between atoms: _138  and  _139
REMARK   58  A    between atoms: _138  and  _141
REMARK   59  A    between atoms: _141  and  _142
REMARK   60  A    between atoms: _142  and  _143
REMARK   61  A    between atoms: _149  and  _150
REMARK   62  A    between atoms: _155  and  _157
REMARK   63  A    between atoms: _157  and  _158
REMARK   64  A    between atoms: _157  and  _160
REMARK   65  A    between atoms: _160  and  _161
REMARK   66  A    between atoms: _161  and  _162
REMARK   67  A    between atoms: _167  and  _169
REMARK   68  A    between atoms: _169  and  _170
REMARK   69  A    between atoms: _169  and  _172
REMARK   70  A    between atoms: _172  and  _173
REMARK   71  A    between atoms: _173  and  _174
REMARK   72  A    between atoms: _174  and  _175
REMARK   73  A    between atoms: _184  and  _186
REMARK   74  A    between atoms: _186  and  _187
REMARK   75  A    between atoms: _186  and  _189
REMARK   76  A    between atoms: _189  and  _190
REMARK   77  A    between atoms: _190  and  _191
REMARK   78  A    between atoms: _191  and  _192
REMARK   79  A    between atoms: _201  and  _203
REMARK   80  A    between atoms: _203  and  _204
REMARK   81  A    between atoms: _203  and  _206
REMARK   82  A    between atoms: _206  and  _207
REMARK   83  A    between atoms: _207  and  _208
REMARK   84  A    between atoms: _211  and  _213
REMARK   85  A    between atoms: _213  and  _214
REMARK   86  A    between atoms: _213  and  _216
REMARK   87  A    between atoms: _216  and  _217
REMARK   88  A    between atoms: _220  and  _222
REMARK   89  A    between atoms: _222  and  _223
REMARK   90  A    between atoms: _222  and  _225
REMARK   91  A    between atoms: _225  and  _226
REMARK   92  A    between atoms: _229  and  _231
REMARK   93  A    between atoms: _231  and  _232
REMARK   94  A    between atoms: _231  and  _234
REMARK   95  A    between atoms: _234  and  _235
REMARK                            x       y       z     vdW  Elec       q    Type
REMARK                         _______ _______ _______ _____ _____    ______ ____
ROOT
ATOM      1  O   HOH     1     -20.447 -46.799 -40.480  0.00  0.00    +0.000 OA
ENDROOT
TORSDOF 0
REMARK  Name = ../refined-set-2016/4whs/4whs_pocket.pdb
REMARK  95 active torsions:
REMARK  status: ('A' for Active; 'I' for Inactive)
REMARK    1  A    between atoms: _1  and  _3
REMARK    2  A    between atoms: _3  and  _4
REMARK    3  A    between atoms: _3  and  _6
REMARK    4  A    between atoms: _6  and  _7
REMARK    5  A    between atoms: _12  and  _13
REMARK    6  A    between atoms: _15  and  _17
REMARK    7  A    between atoms: _17  and  _18
REMARK    8  A    between atoms: _17  and  _20
REMARK    9  A    between atoms: _20  and  _21
REMARK   10  A    between atoms: _27  and  _29
REMARK   11  A    between atoms: _29  and  _30
REMARK   12  A    between atoms: _29  and  _32
REMARK   13  A    between atoms: _32  and  _33
REMARK   14  A    between atoms: _36  and  _38
REMARK   15  A    between atoms: _38  and  _39
REMARK   16  A    between atoms: _38  and  _41
REMARK   17  A    between atoms: _41  and  _42
REMARK   18  A    between atoms: _42  and  _43
REMARK   19  A    between atoms: _46  and  _48
REMARK   20  A    between atoms: _48  and  _49
REMARK   21  A    between atoms: _52  and  _54
REMARK   22  A    between atoms: _54  and  _55
REMARK   23  A    between atoms: _54  and  _57
REMARK   24  A    between atoms: _57  and  _58
REMARK   25  A    between atoms: _58  and  _59
REMARK   26  A    between atoms: _64  and  _66
REMARK   27  A    between atoms: _66  and  _67
REMARK   28  A    between atoms: _70  and  _72
REMARK   29  A    between atoms: _72  and  _73
REMARK   30  A    between atoms: _72  and  _75
REMARK   31  A    between atoms: _75  and  _76
REMARK   32  A    between atoms: _81  and  _83
REMARK   33  A    between atoms: _83  and  _84
REMARK   34  A    between atoms: _87  and  _89
REMARK   35  A    between atoms: _89  and  _90
REMARK   36  A    between atoms: _89  and  _92
REMARK   37  A    between atoms: _92  and  _93
REMARK   38  A    between atoms: _93  and  _94
REMARK   39  A    between atoms: _94  and  _95
REMARK   40  A    between atoms: _95  and  _96
REMARK   41  A    between atoms: _100  and  _102
REMARK   42  A    between atoms: _102  and  _103
REMARK   43  A    between atoms: _102  and  _105
REMARK   44  A    between atoms: _107  and  _109
REMARK   45  A    between atoms: _109  and  _110
REMARK   46  A    between atoms: _109  and  _112
REMARK   47  A    between atoms: _112  and  _113
REMARK   48  A    between atoms: _116  and  _118
REMARK   49  A    between atoms: _118  and  _119
REMARK   50  A    between atoms: _118  and  _121
REMARK   51  A    between atoms: _121  and  _122
REMARK   52  A    between atoms: _127  and  _129
REMARK   53  A    between atoms: _129  and  _130
REMARK   54  A    between atoms: _129  and  _132
REMARK   55  A    between atoms: _132  and  _133
REMARK   56  A    between atoms: _136  and  _138
REMARK   57  A    between atoms: _138  and  _139
REMARK   58  A    between atoms: _138  and  _141
REMARK   59  A    between atoms: _141  and  _142
REMARK   60  A    between atoms: _142  and  _143
REMARK   61  A    between atoms: _149  and  _150
REMARK   62  A    between atoms: _155  and  _157
REMARK   63  A    between atoms: _157  and  _158
REMARK   64  A    between atoms: _157  and  _160
REMARK   65  A    between atoms: _160  and  _161
REMARK   66  A    between atoms: _161  and  _162
REMARK   67  A    between atoms: _167  and  _169
REMARK   68  A    between atoms: _169  and  _170
REMARK   69  A    between atoms: _169  and  _172
REMARK   70  A    between atoms: _172  and  _173
REMARK   71  A    between atoms: _173  and  _174
REMARK   72  A    between atoms: _174  and  _175
REMARK   73  A    between atoms: _184  and  _186
REMARK   74  A    between atoms: _186  and  _187
REMARK   75  A    between atoms: _186  and  _189
REMARK   76  A    between atoms: _189  and  _190
REMARK   77  A    between atoms: _190  and  _191
REMARK   78  A    between atoms: _191  and  _192
REMARK   79  A    between atoms: _201  and  _203
REMARK   80  A    between atoms: _203  and  _204
REMARK   81  A    between atoms: _203  and  _206
REMARK   82  A    between atoms: _206  and  _207
REMARK   83  A    between atoms: _207  and  _208
REMARK   84  A    between atoms: _211  and  _213
REMARK   85  A    between atoms: _213  and  _214
REMARK   86  A    between atoms: _213  and  _216
REMARK   87  A    between atoms: _216  and  _217
REMARK   88  A    between atoms: _220  and  _222
REMARK   89  A    between atoms: _222  and  _223
REMARK   90  A    between atoms: _222  and  _225
REMARK   91  A    between atoms: _225  and  _226
REMARK   92  A    between atoms: _229  and  _231
REMARK   93  A    between atoms: _231  and  _232
REMARK   94  A    between atoms: _231  and  _234
REMARK   95  A    between atoms: _234  and  _235
REMARK                            x       y       z     vdW  Elec       q    Type
REMARK                         _______ _______ _______ _____ _____    ______ ____
ROOT
ATOM      1  O   HOH     1     -20.160 -49.127 -44.431  0.00  0.00    +0.000 OA
ENDROOT
TORSDOF 0
REMARK  Name = ../refined-set-2016/4whs/4whs_pocket.pdb
REMARK  95 active torsions:
REMARK  status: ('A' for Active; 'I' for Inactive)
REMARK    1  A    between atoms: _1  and  _3
REMARK    2  A    between atoms: _3  and  _4
REMARK    3  A    between atoms: _3  and  _6
REMARK    4  A    between atoms: _6  and  _7
REMARK    5  A    between atoms: _12  and  _13
REMARK    6  A    between atoms: _15  and  _17
REMARK    7  A    between atoms: _17  and  _18
REMARK    8  A    between atoms: _17  and  _20
REMARK    9  A    between atoms: _20  and  _21
REMARK   10  A    between atoms: _27  and  _29
REMARK   11  A    between atoms: _29  and  _30
REMARK   12  A    between atoms: _29  and  _32
REMARK   13  A    between atoms: _32  and  _33
REMARK   14  A    between atoms: _36  and  _38
REMARK   15  A    between atoms: _38  and  _39
REMARK   16  A    between atoms: _38  and  _41
REMARK   17  A    between atoms: _41  and  _42
REMARK   18  A    between atoms: _42  and  _43
REMARK   19  A    between atoms: _46  and  _48
REMARK   20  A    between atoms: _48  and  _49
REMARK   21  A    between atoms: _52  and  _54
REMARK   22  A    between atoms: _54  and  _55
REMARK   23  A    between atoms: _54  and  _57
REMARK   24  A    between atoms: _57  and  _58
REMARK   25  A    between atoms: _58  and  _59
REMARK   26  A    between atoms: _64  and  _66
REMARK   27  A    between atoms: _66  and  _67
REMARK   28  A    between atoms: _70  and  _72
REMARK   29  A    between atoms: _72  and  _73
REMARK   30  A    between atoms: _72  and  _75
REMARK   31  A    between atoms: _75  and  _76
REMARK   32  A    between atoms: _81  and  _83
REMARK   33  A    between atoms: _83  and  _84
REMARK   34  A    between atoms: _87  and  _89
REMARK   35  A    between atoms: _89  and  _90
REMARK   36  A    between atoms: _89  and  _92
REMARK   37  A    between atoms: _92  and  _93
REMARK   38  A    between atoms: _93  and  _94
REMARK   39  A    between atoms: _94  and  _95
REMARK   40  A    between atoms: _95  and  _96
REMARK   41  A    between atoms: _100  and  _102
REMARK   42  A    between atoms: _102  and  _103
REMARK   43  A    between atoms: _102  and  _105
REMARK   44  A    between atoms: _107  and  _109
REMARK   45  A    between atoms: _109  and  _110
REMARK   46  A    between atoms: _109  and  _112
REMARK   47  A    between atoms: _112  and  _113
REMARK   48  A    between atoms: _116  and  _118
REMARK   49  A    between atoms: _118  and  _119
REMARK   50  A    between atoms: _118  and  _121
REMARK   51  A    between atoms: _121  and  _122
REMARK   52  A    between atoms: _127  and  _129
REMARK   53  A    between atoms: _129  and  _130
REMARK   54  A    between atoms: _129  and  _132
REMARK   55  A    between atoms: _132  and  _133
REMARK   56  A    between atoms: _136  and  _138
REMARK   57  A    between atoms: _138  and  _139
REMARK   58  A    between atoms: _138  and  _141
REMARK   59  A    between atoms: _141  and  _142
REMARK   60  A    between atoms: _142  and  _143
REMARK   61  A    between atoms: _149  and  _150
REMARK   62  A    between atoms: _155  and  _157
REMARK   63  A    between atoms: _157  and  _158
REMARK   64  A    between atoms: _157  and  _160
REMARK   65  A    between atoms: _160  and  _161
REMARK   66  A    between atoms: _161  and  _162
REMARK   67  A    between atoms: _167  and  _169
REMARK   68  A    between atoms: _169  and  _170
REMARK   69  A    between atoms: _169  and  _172
REMARK   70  A    between atoms: _172  and  _173
REMARK   71  A    between atoms: _173  and  _174
REMARK   72  A    between atoms: _174  and  _175
REMARK   73  A    between atoms: _184  and  _186
REMARK   74  A    between atoms: _186  and  _187
REMARK   75  A    between atoms: _186  and  _189
REMARK   76  A    between atoms: _189  and  _190
REMARK   77  A    between atoms: _190  and  _191
REMARK   78  A    between atoms: _191  and  _192
REMARK   79  A    between atoms: _201  and  _203
REMARK   80  A    between atoms: _203  and  _204
REMARK   81  A    between atoms: _203  and  _206
REMARK   82  A    between atoms: _206  and  _207
REMARK   83  A    between atoms: _207  and  _208
REMARK   84  A    between atoms: _211  and  _213
REMARK   85  A    between atoms: _213  and  _214
REMARK   86  A    between atoms: _213  and  _216
REMARK   87  A    between atoms: _216  and  _217
REMARK   88  A    between atoms: _220  and  _222
REMARK   89  A    between atoms: _222  and  _223
REMARK   90  A    between atoms: _222  and  _225
REMARK   91  A    between atoms: _225  and  _226
REMARK   92  A    between atoms: _229  and  _231
REMARK   93  A    between atoms: _231  and  _232
REMARK   94  A    between atoms: _231  and  _234
REMARK   95  A    between atoms: _234  and  _235
REMARK                            x       y       z     vdW  Elec       q    Type
REMARK                         _______ _______ _______ _____ _____    ______ ____
ROOT
ATOM      1  O   HOH     1     -19.726 -46.713 -43.104  0.00  0.00    +0.000 OA
ENDROOT
TORSDOF 0
