REMARK  Name = ../refined-set-2016/2qi5/2qi5_pocket.pdb
REMARK  215 active torsions:
REMARK  status: ('A' for Active; 'I' for Inactive)
REMARK    1  A    between atoms: _1  and  _3
REMARK    2  A    between atoms: _3  and  _4
REMARK    3  A    between atoms: _3  and  _6
REMARK    4  A    between atoms: _6  and  _7
REMARK    5  A    between atoms: _7  and  _8
REMARK    6  A    between atoms: _8  and  _9
REMARK    7  A    between atoms: _18  and  _20
REMARK    8  A    between atoms: _20  and  _21
REMARK    9  A    between atoms: _20  and  _23
REMARK   10  A    between atoms: _23  and  _24
REMARK   11  A    between atoms: _27  and  _29
REMARK   12  A    between atoms: _29  and  _30
REMARK   13  A    between atoms: _29  and  _32
REMARK   14  A    between atoms: _32  and  _33
REMARK   15  A    between atoms: _36  and  _38
REMARK   16  A    between atoms: _38  and  _39
REMARK   17  A    between atoms: _38  and  _41
REMARK   18  A    between atoms: _41  and  _42
REMARK   19  A    between atoms: _45  and  _47
REMARK   20  A    between atoms: _47  and  _48
REMARK   21  A    between atoms: _47  and  _50
REMARK   22  A    between atoms: _50  and  _51
REMARK   23  A    between atoms: _54  and  _56
REMARK   24  A    between atoms: _56  and  _57
REMARK   25  A    between atoms: _59  and  _61
REMARK   26  A    between atoms: _61  and  _62
REMARK   27  A    between atoms: _65  and  _67
REMARK   28  A    between atoms: _67  and  _68
REMARK   29  A    between atoms: _67  and  _70
REMARK   30  A    between atoms: _70  and  _71
REMARK   31  A    between atoms: _74  and  _76
REMARK   32  A    between atoms: _76  and  _77
REMARK   33  A    between atoms: _76  and  _79
REMARK   34  A    between atoms: _79  and  _80
REMARK   35  A    between atoms: _83  and  _85
REMARK   36  A    between atoms: _85  and  _86
REMARK   37  A    between atoms: _85  and  _88
REMARK   38  A    between atoms: _88  and  _89
REMARK   39  A    between atoms: _92  and  _94
REMARK   40  A    between atoms: _94  and  _95
REMARK   41  A    between atoms: _94  and  _97
REMARK   42  A    between atoms: _100  and  _102
REMARK   43  A    between atoms: _102  and  _103
REMARK   44  A    between atoms: _102  and  _105
REMARK   45  A    between atoms: _105  and  _106
REMARK   46  A    between atoms: _109  and  _111
REMARK   47  A    between atoms: _111  and  _112
REMARK   48  A    between atoms: _114  and  _116
REMARK   49  A    between atoms: _116  and  _117
REMARK   50  A    between atoms: _119  and  _121
REMARK   51  A    between atoms: _121  and  _122
REMARK   52  A    between atoms: _121  and  _124
REMARK   53  A    between atoms: _124  and  _125
REMARK   54  A    between atoms: _128  and  _130
REMARK   55  A    between atoms: _130  and  _131
REMARK   56  A    between atoms: _133  and  _135
REMARK   57  A    between atoms: _135  and  _136
REMARK   58  A    between atoms: _138  and  _140
REMARK   59  A    between atoms: _140  and  _141
REMARK   60  A    between atoms: _140  and  _143
REMARK   61  A    between atoms: _143  and  _144
REMARK   62  A    between atoms: _150  and  _152
REMARK   63  A    between atoms: _152  and  _153
REMARK   64  A    between atoms: _152  and  _155
REMARK   65  A    between atoms: _155  and  _156
REMARK   66  A    between atoms: _159  and  _161
REMARK   67  A    between atoms: _161  and  _162
REMARK   68  A    between atoms: _161  and  _164
REMARK   69  A    between atoms: _164  and  _165
REMARK   70  A    between atoms: _169  and  _170
REMARK   71  A    between atoms: _175  and  _177
REMARK   72  A    between atoms: _177  and  _178
REMARK   73  A    between atoms: _177  and  _180
REMARK   74  A    between atoms: _180  and  _181
REMARK   75  A    between atoms: _185  and  _186
REMARK   76  A    between atoms: _191  and  _193
REMARK   77  A    between atoms: _193  and  _194
REMARK   78  A    between atoms: _193  and  _196
REMARK   79  A    between atoms: _199  and  _201
REMARK   80  A    between atoms: _201  and  _202
REMARK   81  A    between atoms: _201  and  _204
REMARK   82  A    between atoms: _204  and  _205
REMARK   83  A    between atoms: _210  and  _212
REMARK   84  A    between atoms: _212  and  _213
REMARK   85  A    between atoms: _212  and  _215
REMARK   86  A    between atoms: _215  and  _216
REMARK   87  A    between atoms: _219  and  _221
REMARK   88  A    between atoms: _221  and  _222
REMARK   89  A    between atoms: _221  and  _224
REMARK   90  A    between atoms: _224  and  _225
REMARK   91  A    between atoms: _228  and  _230
REMARK   92  A    between atoms: _230  and  _231
REMARK   93  A    between atoms: _233  and  _235
REMARK   94  A    between atoms: _235  and  _236
REMARK   95  A    between atoms: _235  and  _238
REMARK   96  A    between atoms: _238  and  _239
REMARK   97  A    between atoms: _239  and  _240
REMARK   98  A    between atoms: _240  and  _241
REMARK   99  A    between atoms: _250  and  _252
REMARK  100  A    between atoms: _252  and  _253
REMARK  101  A    between atoms: _252  and  _255
REMARK  102  A    between atoms: _255  and  _256
REMARK  103  A    between atoms: _256  and  _257
REMARK  104  A    between atoms: _257  and  _258
REMARK  105  A    between atoms: _267  and  _269
REMARK  106  A    between atoms: _269  and  _270
REMARK  107  A    between atoms: _269  and  _272
REMARK  108  A    between atoms: _272  and  _273
REMARK  109  A    between atoms: _276  and  _278
REMARK  110  A    between atoms: _278  and  _279
REMARK  111  A    between atoms: _278  and  _281
REMARK  112  A    between atoms: _281  and  _282
REMARK  113  A    between atoms: _285  and  _287
REMARK  114  A    between atoms: _287  and  _288
REMARK  115  A    between atoms: _287  and  _290
REMARK  116  A    between atoms: _290  and  _291
REMARK  117  A    between atoms: _294  and  _296
REMARK  118  A    between atoms: _296  and  _297
REMARK  119  A    between atoms: _296  and  _299
REMARK  120  A    between atoms: _299  and  _300
REMARK  121  A    between atoms: _303  and  _305
REMARK  122  A    between atoms: _305  and  _306
REMARK  123  A    between atoms: _308  and  _310
REMARK  124  A    between atoms: _310  and  _311
REMARK  125  A    between atoms: _314  and  _316
REMARK  126  A    between atoms: _316  and  _317
REMARK  127  A    between atoms: _316  and  _319
REMARK  128  A    between atoms: _319  and  _320
REMARK  129  A    between atoms: _323  and  _325
REMARK  130  A    between atoms: _325  and  _326
REMARK  131  A    between atoms: _325  and  _328
REMARK  132  A    between atoms: _328  and  _329
REMARK  133  A    between atoms: _332  and  _334
REMARK  134  A    between atoms: _334  and  _335
REMARK  135  A    between atoms: _334  and  _337
REMARK  136  A    between atoms: _337  and  _338
REMARK  137  A    between atoms: _341  and  _343
REMARK  138  A    between atoms: _343  and  _344
REMARK  139  A    between atoms: _343  and  _346
REMARK  140  A    between atoms: _349  and  _351
REMARK  141  A    between atoms: _351  and  _352
REMARK  142  A    between atoms: _351  and  _354
REMARK  143  A    between atoms: _354  and  _355
REMARK  144  A    between atoms: _355  and  _356
REMARK  145  A    between atoms: _356  and  _357
REMARK  146  A    between atoms: _357  and  _358
REMARK  147  A    between atoms: _362  and  _364
REMARK  148  A    between atoms: _364  and  _365
REMARK  149  A    between atoms: _364  and  _367
REMARK  150  A    between atoms: _367  and  _368
REMARK  151  A    between atoms: _368  and  _369
REMARK  152  A    between atoms: _371  and  _373
REMARK  153  A    between atoms: _373  and  _374
REMARK  154  A    between atoms: _373  and  _376
REMARK  155  A    between atoms: _376  and  _377
REMARK  156  A    between atoms: _380  and  _382
REMARK  157  A    between atoms: _382  and  _383
REMARK  158  A    between atoms: _385  and  _387
REMARK  159  A    between atoms: _387  and  _388
REMARK  160  A    between atoms: _390  and  _392
REMARK  161  A    between atoms: _392  and  _393
REMARK  162  A    between atoms: _392  and  _395
REMARK  163  A    between atoms: _395  and  _396
REMARK  164  A    between atoms: _399  and  _401
REMARK  165  A    between atoms: _401  and  _402
REMARK  166  A    between atoms: _404  and  _406
REMARK  167  A    between atoms: _406  and  _407
REMARK  168  A    between atoms: _409  and  _411
REMARK  169  A    between atoms: _411  and  _412
REMARK  170  A    between atoms: _411  and  _414
REMARK  171  A    between atoms: _414  and  _415
REMARK  172  A    between atoms: _421  and  _423
REMARK  173  A    between atoms: _423  and  _424
REMARK  174  A    between atoms: _423  and  _426
REMARK  175  A    between atoms: _426  and  _427
REMARK  176  A    between atoms: _430  and  _432
REMARK  177  A    between atoms: _432  and  _433
REMARK  178  A    between atoms: _432  and  _435
REMARK  179  A    between atoms: _438  and  _440
REMARK  180  A    between atoms: _440  and  _441
REMARK  181  A    between atoms: _440  and  _443
REMARK  182  A    between atoms: _443  and  _444
REMARK  183  A    between atoms: _448  and  _449
REMARK  184  A    between atoms: _454  and  _456
REMARK  185  A    between atoms: _456  and  _457
REMARK  186  A    between atoms: _456  and  _459
REMARK  187  A    between atoms: _459  and  _460
REMARK  188  A    between atoms: _464  and  _465
REMARK  189  A    between atoms: _470  and  _472
REMARK  190  A    between atoms: _472  and  _473
REMARK  191  A    between atoms: _472  and  _475
REMARK  192  A    between atoms: _478  and  _480
REMARK  193  A    between atoms: _480  and  _481
REMARK  194  A    between atoms: _480  and  _483
REMARK  195  A    between atoms: _483  and  _484
REMARK  196  A    between atoms: _489  and  _491
REMARK  197  A    between atoms: _491  and  _492
REMARK  198  A    between atoms: _491  and  _494
REMARK  199  A    between atoms: _494  and  _495
REMARK  200  A    between atoms: _498  and  _500
REMARK  201  A    between atoms: _500  and  _501
REMARK  202  A    between atoms: _500  and  _503
REMARK  203  A    between atoms: _503  and  _504
REMARK  204  A    between atoms: _507  and  _509
REMARK  205  A    between atoms: _509  and  _510
REMARK  206  A    between atoms: _512  and  _514
REMARK  207  A    between atoms: _514  and  _515
REMARK  208  A    between atoms: _514  and  _517
REMARK  209  A    between atoms: _517  and  _518
REMARK  210  A    between atoms: _518  and  _519
REMARK  211  A    between atoms: _519  and  _520
REMARK  212  A    between atoms: _529  and  _531
REMARK  213  A    between atoms: _531  and  _532
REMARK  214  A    between atoms: _531  and  _534
REMARK  215  A    between atoms: _534  and  _535
REMARK                            x       y       z     vdW  Elec       q    Type
REMARK                         _______ _______ _______ _____ _____    ______ ____
ROOT
ATOM      1  NE  ARG A   1      21.321  37.328  23.193  0.00  0.00    -0.265 N 
ATOM      2  HE  ARG A   1      20.416  37.370  23.703  0.00  0.00    +0.259 HD
ATOM      3  CZ  ARG A   1      21.486  38.174  22.178  0.00  0.00    +0.342 C 
ATOM      4  NH2 ARG A   1      20.511  39.017  21.866  0.00  0.00    -0.292 N 
ATOM      5 HH21 ARG A   1      19.626  39.014  22.412  0.00  0.00    +0.255 HD
ATOM      6 HH22 ARG A   1      20.631  39.681  21.075  0.00  0.00    +0.255 HD
ATOM      7  NH1 ARG A   1      22.605  38.174  21.463  0.00  0.00    -0.292 N 
ATOM      8 HH11 ARG A   1      23.369  37.507  21.693  0.00  0.00    +0.255 HD
ATOM      9 HH12 ARG A   1      22.718  38.841  20.673  0.00  0.00    +0.255 HD
ENDROOT
BRANCH   1  10
ATOM     10  CD  ARG A   1      22.300  36.345  23.653  0.00  0.00    +0.174 C 
BRANCH  10  11
ATOM     11  CG  ARG A   1      21.677  35.417  24.687  0.00  0.00    +0.045 C 
BRANCH  11  12
ATOM     12  CB  ARG A   1      22.720  34.659  25.483  0.00  0.00    +0.029 C 
BRANCH  12  13
ATOM     13  CA  ARG A   1      22.128  33.709  26.528  0.00  0.00    +0.133 C 
BRANCH  13  14
ATOM     14  N   ARG A   1      21.476  34.451  27.610  0.00  0.00    -0.239 NA
ATOM     15  H   ARG A   1      21.498  35.491  27.608  0.00  0.00    +0.142 HD
ENDBRANCH  13  14
BRANCH  13  16
ATOM     16  C   ARG A   1      23.236  32.820  27.106  0.00  0.00    +0.224 C 
ATOM     17  O   ARG A   1      24.044  33.285  27.921  0.00  0.00    -0.287 OA
ENDBRANCH  13  16
ENDBRANCH  12  13
ENDBRANCH  11  12
ENDBRANCH  10  11
ENDBRANCH   1  10
TORSDOF 6
REMARK  Name = ../refined-set-2016/2qi5/2qi5_pocket.pdb
REMARK  215 active torsions:
REMARK  status: ('A' for Active; 'I' for Inactive)
REMARK    1  A    between atoms: _1  and  _3
REMARK    2  A    between atoms: _3  and  _4
REMARK    3  A    between atoms: _3  and  _6
REMARK    4  A    between atoms: _6  and  _7
REMARK    5  A    between atoms: _7  and  _8
REMARK    6  A    between atoms: _8  and  _9
REMARK    7  A    between atoms: _18  and  _20
REMARK    8  A    between atoms: _20  and  _21
REMARK    9  A    between atoms: _20  and  _23
REMARK   10  A    between atoms: _23  and  _24
REMARK   11  A    between atoms: _27  and  _29
REMARK   12  A    between atoms: _29  and  _30
REMARK   13  A    between atoms: _29  and  _32
REMARK   14  A    between atoms: _32  and  _33
REMARK   15  A    between atoms: _36  and  _38
REMARK   16  A    between atoms: _38  and  _39
REMARK   17  A    between atoms: _38  and  _41
REMARK   18  A    between atoms: _41  and  _42
REMARK   19  A    between atoms: _45  and  _47
REMARK   20  A    between atoms: _47  and  _48
REMARK   21  A    between atoms: _47  and  _50
REMARK   22  A    between atoms: _50  and  _51
REMARK   23  A    between atoms: _54  and  _56
REMARK   24  A    between atoms: _56  and  _57
REMARK   25  A    between atoms: _59  and  _61
REMARK   26  A    between atoms: _61  and  _62
REMARK   27  A    between atoms: _65  and  _67
REMARK   28  A    between atoms: _67  and  _68
REMARK   29  A    between atoms: _67  and  _70
REMARK   30  A    between atoms: _70  and  _71
REMARK   31  A    between atoms: _74  and  _76
REMARK   32  A    between atoms: _76  and  _77
REMARK   33  A    between atoms: _76  and  _79
REMARK   34  A    between atoms: _79  and  _80
REMARK   35  A    between atoms: _83  and  _85
REMARK   36  A    between atoms: _85  and  _86
REMARK   37  A    between atoms: _85  and  _88
REMARK   38  A    between atoms: _88  and  _89
REMARK   39  A    between atoms: _92  and  _94
REMARK   40  A    between atoms: _94  and  _95
REMARK   41  A    between atoms: _94  and  _97
REMARK   42  A    between atoms: _100  and  _102
REMARK   43  A    between atoms: _102  and  _103
REMARK   44  A    between atoms: _102  and  _105
REMARK   45  A    between atoms: _105  and  _106
REMARK   46  A    between atoms: _109  and  _111
REMARK   47  A    between atoms: _111  and  _112
REMARK   48  A    between atoms: _114  and  _116
REMARK   49  A    between atoms: _116  and  _117
REMARK   50  A    between atoms: _119  and  _121
REMARK   51  A    between atoms: _121  and  _122
REMARK   52  A    between atoms: _121  and  _124
REMARK   53  A    between atoms: _124  and  _125
REMARK   54  A    between atoms: _128  and  _130
REMARK   55  A    between atoms: _130  and  _131
REMARK   56  A    between atoms: _133  and  _135
REMARK   57  A    between atoms: _135  and  _136
REMARK   58  A    between atoms: _138  and  _140
REMARK   59  A    between atoms: _140  and  _141
REMARK   60  A    between atoms: _140  and  _143
REMARK   61  A    between atoms: _143  and  _144
REMARK   62  A    between atoms: _150  and  _152
REMARK   63  A    between atoms: _152  and  _153
REMARK   64  A    between atoms: _152  and  _155
REMARK   65  A    between atoms: _155  and  _156
REMARK   66  A    between atoms: _159  and  _161
REMARK   67  A    between atoms: _161  and  _162
REMARK   68  A    between atoms: _161  and  _164
REMARK   69  A    between atoms: _164  and  _165
REMARK   70  A    between atoms: _169  and  _170
REMARK   71  A    between atoms: _175  and  _177
REMARK   72  A    between atoms: _177  and  _178
REMARK   73  A    between atoms: _177  and  _180
REMARK   74  A    between atoms: _180  and  _181
REMARK   75  A    between atoms: _185  and  _186
REMARK   76  A    between atoms: _191  and  _193
REMARK   77  A    between atoms: _193  and  _194
REMARK   78  A    between atoms: _193  and  _196
REMARK   79  A    between atoms: _199  and  _201
REMARK   80  A    between atoms: _201  and  _202
REMARK   81  A    between atoms: _201  and  _204
REMARK   82  A    between atoms: _204  and  _205
REMARK   83  A    between atoms: _210  and  _212
REMARK   84  A    between atoms: _212  and  _213
REMARK   85  A    between atoms: _212  and  _215
REMARK   86  A    between atoms: _215  and  _216
REMARK   87  A    between atoms: _219  and  _221
REMARK   88  A    between atoms: _221  and  _222
REMARK   89  A    between atoms: _221  and  _224
REMARK   90  A    between atoms: _224  and  _225
REMARK   91  A    between atoms: _228  and  _230
REMARK   92  A    between atoms: _230  and  _231
REMARK   93  A    between atoms: _233  and  _235
REMARK   94  A    between atoms: _235  and  _236
REMARK   95  A    between atoms: _235  and  _238
REMARK   96  A    between atoms: _238  and  _239
REMARK   97  A    between atoms: _239  and  _240
REMARK   98  A    between atoms: _240  and  _241
REMARK   99  A    between atoms: _250  and  _252
REMARK  100  A    between atoms: _252  and  _253
REMARK  101  A    between atoms: _252  and  _255
REMARK  102  A    between atoms: _255  and  _256
REMARK  103  A    between atoms: _256  and  _257
REMARK  104  A    between atoms: _257  and  _258
REMARK  105  A    between atoms: _267  and  _269
REMARK  106  A    between atoms: _269  and  _270
REMARK  107  A    between atoms: _269  and  _272
REMARK  108  A    between atoms: _272  and  _273
REMARK  109  A    between atoms: _276  and  _278
REMARK  110  A    between atoms: _278  and  _279
REMARK  111  A    between atoms: _278  and  _281
REMARK  112  A    between atoms: _281  and  _282
REMARK  113  A    between atoms: _285  and  _287
REMARK  114  A    between atoms: _287  and  _288
REMARK  115  A    between atoms: _287  and  _290
REMARK  116  A    between atoms: _290  and  _291
REMARK  117  A    between atoms: _294  and  _296
REMARK  118  A    between atoms: _296  and  _297
REMARK  119  A    between atoms: _296  and  _299
REMARK  120  A    between atoms: _299  and  _300
REMARK  121  A    between atoms: _303  and  _305
REMARK  122  A    between atoms: _305  and  _306
REMARK  123  A    between atoms: _308  and  _310
REMARK  124  A    between atoms: _310  and  _311
REMARK  125  A    between atoms: _314  and  _316
REMARK  126  A    between atoms: _316  and  _317
REMARK  127  A    between atoms: _316  and  _319
REMARK  128  A    between atoms: _319  and  _320
REMARK  129  A    between atoms: _323  and  _325
REMARK  130  A    between atoms: _325  and  _326
REMARK  131  A    between atoms: _325  and  _328
REMARK  132  A    between atoms: _328  and  _329
REMARK  133  A    between atoms: _332  and  _334
REMARK  134  A    between atoms: _334  and  _335
REMARK  135  A    between atoms: _334  and  _337
REMARK  136  A    between atoms: _337  and  _338
REMARK  137  A    between atoms: _341  and  _343
REMARK  138  A    between atoms: _343  and  _344
REMARK  139  A    between atoms: _343  and  _346
REMARK  140  A    between atoms: _349  and  _351
REMARK  141  A    between atoms: _351  and  _352
REMARK  142  A    between atoms: _351  and  _354
REMARK  143  A    between atoms: _354  and  _355
REMARK  144  A    between atoms: _355  and  _356
REMARK  145  A    between atoms: _356  and  _357
REMARK  146  A    between atoms: _357  and  _358
REMARK  147  A    between atoms: _362  and  _364
REMARK  148  A    between atoms: _364  and  _365
REMARK  149  A    between atoms: _364  and  _367
REMARK  150  A    between atoms: _367  and  _368
REMARK  151  A    between atoms: _368  and  _369
REMARK  152  A    between atoms: _371  and  _373
REMARK  153  A    between atoms: _373  and  _374
REMARK  154  A    between atoms: _373  and  _376
REMARK  155  A    between atoms: _376  and  _377
REMARK  156  A    between atoms: _380  and  _382
REMARK  157  A    between atoms: _382  and  _383
REMARK  158  A    between atoms: _385  and  _387
REMARK  159  A    between atoms: _387  and  _388
REMARK  160  A    between atoms: _390  and  _392
REMARK  161  A    between atoms: _392  and  _393
REMARK  162  A    between atoms: _392  and  _395
REMARK  163  A    between atoms: _395  and  _396
REMARK  164  A    between atoms: _399  and  _401
REMARK  165  A    between atoms: _401  and  _402
REMARK  166  A    between atoms: _404  and  _406
REMARK  167  A    between atoms: _406  and  _407
REMARK  168  A    between atoms: _409  and  _411
REMARK  169  A    between atoms: _411  and  _412
REMARK  170  A    between atoms: _411  and  _414
REMARK  171  A    between atoms: _414  and  _415
REMARK  172  A    between atoms: _421  and  _423
REMARK  173  A    between atoms: _423  and  _424
REMARK  174  A    between atoms: _423  and  _426
REMARK  175  A    between atoms: _426  and  _427
REMARK  176  A    between atoms: _430  and  _432
REMARK  177  A    between atoms: _432  and  _433
REMARK  178  A    between atoms: _432  and  _435
REMARK  179  A    between atoms: _438  and  _440
REMARK  180  A    between atoms: _440  and  _441
REMARK  181  A    between atoms: _440  and  _443
REMARK  182  A    between atoms: _443  and  _444
REMARK  183  A    between atoms: _448  and  _449
REMARK  184  A    between atoms: _454  and  _456
REMARK  185  A    between atoms: _456  and  _457
REMARK  186  A    between atoms: _456  and  _459
REMARK  187  A    between atoms: _459  and  _460
REMARK  188  A    between atoms: _464  and  _465
REMARK  189  A    between atoms: _470  and  _472
REMARK  190  A    between atoms: _472  and  _473
REMARK  191  A    between atoms: _472  and  _475
REMARK  192  A    between atoms: _478  and  _480
REMARK  193  A    between atoms: _480  and  _481
REMARK  194  A    between atoms: _480  and  _483
REMARK  195  A    between atoms: _483  and  _484
REMARK  196  A    between atoms: _489  and  _491
REMARK  197  A    between atoms: _491  and  _492
REMARK  198  A    between atoms: _491  and  _494
REMARK  199  A    between atoms: _494  and  _495
REMARK  200  A    between atoms: _498  and  _500
REMARK  201  A    between atoms: _500  and  _501
REMARK  202  A    between atoms: _500  and  _503
REMARK  203  A    between atoms: _503  and  _504
REMARK  204  A    between atoms: _507  and  _509
REMARK  205  A    between atoms: _509  and  _510
REMARK  206  A    between atoms: _512  and  _514
REMARK  207  A    between atoms: _514  and  _515
REMARK  208  A    between atoms: _514  and  _517
REMARK  209  A    between atoms: _517  and  _518
REMARK  210  A    between atoms: _518  and  _519
REMARK  211  A    between atoms: _519  and  _520
REMARK  212  A    between atoms: _529  and  _531
REMARK  213  A    between atoms: _531  and  _532
REMARK  214  A    between atoms: _531  and  _534
REMARK  215  A    between atoms: _534  and  _535
REMARK                            x       y       z     vdW  Elec       q    Type
REMARK                         _______ _______ _______ _____ _____    ______ ____
ROOT
ATOM      1  C   GLY A   5      20.746  25.093  15.837  0.00  0.00    +0.243 C 
ATOM      2  N   ALA A   6      22.048  24.989  16.093  0.00  0.00    -0.297 N 
ATOM      3  H   ALA A   6      22.353  24.815  17.072  0.00  0.00    +0.150 HD
ATOM      4  O   GLY A   5      20.300  25.290  14.705  0.00  0.00    -0.273 OA
ENDROOT
BRANCH   2   5
ATOM      5  CA  ALA A   6      23.063  25.110  15.052  0.00  0.00    +0.149 C 
ATOM      6  CB  ALA A   6      24.119  26.107  15.480  0.00  0.00    +0.031 C 
BRANCH   5   7
ATOM      7  C   ALA A   6      23.704  23.756  14.773  0.00  0.00    +0.241 C 
ATOM      8  O   ALA A   6      24.268  23.140  15.679  0.00  0.00    -0.273 OA
ATOM      9  N   ASP A   7      23.633  23.310  13.522  0.00  0.00    -0.297 N 
ATOM     10  H   ASP A   7      23.091  23.857  12.823  0.00  0.00    +0.150 HD
BRANCH   9  11
ATOM     11  CA  ASP A   7      24.294  22.071  13.096  0.00  0.00    +0.160 C 
BRANCH  11  12
ATOM     12  C   ASP A   7      25.811  22.205  13.213  0.00  0.00    +0.241 C 
ATOM     13  O   ASP A   7      26.507  21.272  13.635  0.00  0.00    -0.273 OA
ATOM     14  N   ASP A   8      26.295  23.374  12.804  0.00  0.00    -0.297 N 
ATOM     15  H   ASP A   8      25.616  24.123  12.559  0.00  0.00    +0.150 HD
BRANCH  14  16
ATOM     16  CA  ASP A   8      27.707  23.672  12.678  0.00  0.00    +0.160 C 
BRANCH  16  17
ATOM     17  C   ASP A   8      28.174  24.738  13.666  0.00  0.00    +0.241 C 
ATOM     18  O   ASP A   8      27.376  25.492  14.208  0.00  0.00    -0.273 OA
ATOM     19  N   THR A   9      29.487  24.792  13.869  0.00  0.00    -0.295 N 
ATOM     20  H   THR A   9      30.083  24.079  13.403  0.00  0.00    +0.150 HD
BRANCH  19  21
ATOM     21  CA  THR A   9      30.142  25.793  14.707  0.00  0.00    +0.176 C 
BRANCH  21  22
ATOM     22  C   THR A   9      30.663  26.877  13.758  0.00  0.00    +0.243 C 
ATOM     23  N   VAL A  10      30.289  28.127  14.026  0.00  0.00    -0.298 N 
ATOM     24  H   VAL A  10      29.747  28.317  14.893  0.00  0.00    +0.150 HD
ATOM     25  O   THR A   9      31.361  26.579  12.782  0.00  0.00    -0.273 OA
BRANCH  23  26
ATOM     26  CA  VAL A  10      30.620  29.240  13.135  0.00  0.00    +0.137 C 
BRANCH  26  27
ATOM     27  CB  VAL A  10      29.388  29.799  12.371  0.00  0.00    +0.026 C 
ATOM     28  CG2 VAL A  10      28.483  28.689  11.915  0.00  0.00    +0.002 C 
ATOM     29  CG1 VAL A  10      29.863  30.657  11.192  0.00  0.00    +0.002 C 
ENDBRANCH  26  27
BRANCH  26  30
ATOM     30  C   VAL A  10      31.141  30.391  13.971  0.00  0.00    +0.227 C 
ATOM     31  O   VAL A  10      30.435  30.865  14.864  0.00  0.00    -0.286 OA
ENDBRANCH  26  30
ENDBRANCH  23  26
ENDBRANCH  21  22
BRANCH  21  32
ATOM     32  CB  THR A   9      31.290  25.146  15.524  0.00  0.00    +0.137 C 
ATOM     33  CG2 THR A   9      32.207  26.173  16.151  0.00  0.00    +0.034 C 
BRANCH  32  34
ATOM     34  OG1 THR A   9      30.745  24.299  16.543  0.00  0.00    -0.382 OA
ATOM     35  HG1 THR A   9      30.201  23.587  16.122  0.00  0.00    +0.210 HD
ENDBRANCH  32  34
ENDBRANCH  21  32
ENDBRANCH  19  21
ENDBRANCH  16  17
BRANCH  16  36
ATOM     36  CB  ASP A   8      27.990  24.164  11.256  0.00  0.00    +0.143 C 
BRANCH  36  37
ATOM     37  CG  ASP A   8      27.605  23.150  10.189  0.00  0.00    +0.367 C 
ATOM     38  OD2 ASP A   8      27.835  21.939  10.381  0.00  0.00    -0.246 OA
ATOM     39  OD1 ASP A   8      27.097  23.583   9.130  0.00  0.00    -0.246 OA
ENDBRANCH  36  37
ENDBRANCH  16  36
ENDBRANCH  14  16
ENDBRANCH  11  12
BRANCH  11  40
ATOM     40  CB  ASP A   7      23.972  21.751  11.636  0.00  0.00    +0.143 C 
BRANCH  40  41
ATOM     41  CG  ASP A   7      22.501  21.507  11.372  0.00  0.00    +0.367 C 
ATOM     42  OD2 ASP A   7      21.705  21.278  12.310  0.00  0.00    -0.246 OA
ATOM     43  OD1 ASP A   7      22.149  21.530  10.172  0.00  0.00    -0.246 OA
ENDBRANCH  40  41
ENDBRANCH  11  40
ENDBRANCH   9  11
ENDBRANCH   5   7
ENDBRANCH   2   5
BRANCH   1  44
ATOM     44  CA  GLY A   5      19.798  24.961  17.018  0.00  0.00    +0.176 C 
BRANCH  44  46
ATOM     45  C   THR A   4      20.848  23.586  18.763  0.00  0.00    +0.243 C 
ATOM     46  N   GLY A   5      20.434  24.776  18.325  0.00  0.00    -0.295 N 
ATOM     47  H   GLY A   5      20.568  25.607  18.936  0.00  0.00    +0.150 HD
ATOM     48  O   THR A   4      20.668  22.540  18.140  0.00  0.00    -0.273 OA
BRANCH  45  49
ATOM     49  CA  THR A   4      21.587  23.568  20.103  0.00  0.00    +0.176 C 
BRANCH  49  51
ATOM     50  C   ASP A   3      23.078  25.445  19.782  0.00  0.00    +0.241 C 
ATOM     51  N   THR A   4      22.092  24.880  20.467  0.00  0.00    -0.295 N 
ATOM     52  H   THR A   4      21.675  25.384  21.276  0.00  0.00    +0.150 HD
ATOM     53  O   ASP A   3      23.581  24.923  18.784  0.00  0.00    -0.273 OA
BRANCH  50  54
ATOM     54  CA  ASP A   3      23.535  26.801  20.290  0.00  0.00    +0.160 C 
BRANCH  54  57
ATOM     55  C   LEU A   2      24.706  27.173  22.409  0.00  0.00    +0.241 C 
ATOM     56  O   LEU A   2      23.698  27.530  23.016  0.00  0.00    -0.273 OA
ATOM     57  N   ASP A   3      24.675  26.654  21.182  0.00  0.00    -0.297 N 
ATOM     58  H   ASP A   3      25.502  26.120  20.847  0.00  0.00    +0.150 HD
BRANCH  55  59
ATOM     59  CA  LEU A   2      26.088  27.311  23.042  0.00  0.00    +0.149 C 
BRANCH  59  61
ATOM     60  C   LEU A   1      26.843  29.406  22.048  0.00  0.00    +0.238 C 
ATOM     61  N   LEU A   2      26.453  28.724  23.122  0.00  0.00    -0.297 N 
ATOM     62  H   LEU A   2      26.407  29.208  24.041  0.00  0.00    +0.150 HD
ATOM     63  O   LEU A   1      27.026  28.885  20.942  0.00  0.00    -0.274 OA
BRANCH  60  64
ATOM     64  CA  LEU A   1      27.028  30.909  22.224  0.00  0.00    +0.145 C 
BRANCH  64  65
ATOM     65  N   LEU A   1      28.365  31.329  21.825  0.00  0.00    -0.238 NA
ATOM     66  H   LEU A   1      28.539  31.550  20.824  0.00  0.00    +0.142 HD
ENDBRANCH  64  65
BRANCH  64  67
ATOM     67  CB  LEU A   1      26.016  31.643  21.355  0.00  0.00    +0.026 C 
BRANCH  67  68
ATOM     68  CG  LEU A   1      24.522  31.475  21.594  0.00  0.00    +0.002 C 
ATOM     69  CD2 LEU A   1      24.092  32.164  22.892  0.00  0.00    +0.000 C 
ATOM     70  CD1 LEU A   1      23.817  32.066  20.375  0.00  0.00    +0.000 C 
ENDBRANCH  67  68
ENDBRANCH  64  67
ENDBRANCH  60  64
ENDBRANCH  59  61
BRANCH  59  71
ATOM     71  CB  LEU A   2      26.100  26.672  24.428  0.00  0.00    +0.029 C 
BRANCH  71  72
ATOM     72  CG  LEU A   2      27.401  26.783  25.228  0.00  0.00    +0.002 C 
ATOM     73  CD2 LEU A   2      27.209  26.102  26.559  0.00  0.00    +0.000 C 
ATOM     74  CD1 LEU A   2      28.583  26.184  24.499  0.00  0.00    +0.000 C 
ENDBRANCH  71  72
ENDBRANCH  59  71
ENDBRANCH  55  59
ENDBRANCH  54  57
BRANCH  54  75
ATOM     75  CB  ASP A   3      23.938  27.727  19.135  0.00  0.00    +0.143 C 
BRANCH  75  76
ATOM     76  CG  ASP A   3      22.780  28.121  18.242  0.00  0.00    +0.367 C 
ATOM     77  OD2 ASP A   3      21.667  27.547  18.333  0.00  0.00    -0.246 OA
ATOM     78  OD1 ASP A   3      23.005  29.040  17.433  0.00  0.00    -0.246 OA
ENDBRANCH  75  76
ENDBRANCH  54  75
ENDBRANCH  50  54
ENDBRANCH  49  51
BRANCH  49  79
ATOM     79  CB  THR A   4      20.681  23.019  21.213  0.00  0.00    +0.137 C 
ATOM     80  CG2 THR A   4      21.488  22.856  22.511  0.00  0.00    +0.034 C 
BRANCH  79  81
ATOM     81  OG1 THR A   4      19.564  23.898  21.418  0.00  0.00    -0.382 OA
ATOM     82  HG1 THR A   4      19.044  23.970  20.579  0.00  0.00    +0.210 HD
ENDBRANCH  79  81
ENDBRANCH  49  79
ENDBRANCH  45  49
ENDBRANCH  44  46
ENDBRANCH   1  44
TORSDOF 35
REMARK  Name = ../refined-set-2016/2qi5/2qi5_pocket.pdb
REMARK  215 active torsions:
REMARK  status: ('A' for Active; 'I' for Inactive)
REMARK    1  A    between atoms: _1  and  _3
REMARK    2  A    between atoms: _3  and  _4
REMARK    3  A    between atoms: _3  and  _6
REMARK    4  A    between atoms: _6  and  _7
REMARK    5  A    between atoms: _7  and  _8
REMARK    6  A    between atoms: _8  and  _9
REMARK    7  A    between atoms: _18  and  _20
REMARK    8  A    between atoms: _20  and  _21
REMARK    9  A    between atoms: _20  and  _23
REMARK   10  A    between atoms: _23  and  _24
REMARK   11  A    between atoms: _27  and  _29
REMARK   12  A    between atoms: _29  and  _30
REMARK   13  A    between atoms: _29  and  _32
REMARK   14  A    between atoms: _32  and  _33
REMARK   15  A    between atoms: _36  and  _38
REMARK   16  A    between atoms: _38  and  _39
REMARK   17  A    between atoms: _38  and  _41
REMARK   18  A    between atoms: _41  and  _42
REMARK   19  A    between atoms: _45  and  _47
REMARK   20  A    between atoms: _47  and  _48
REMARK   21  A    between atoms: _47  and  _50
REMARK   22  A    between atoms: _50  and  _51
REMARK   23  A    between atoms: _54  and  _56
REMARK   24  A    between atoms: _56  and  _57
REMARK   25  A    between atoms: _59  and  _61
REMARK   26  A    between atoms: _61  and  _62
REMARK   27  A    between atoms: _65  and  _67
REMARK   28  A    between atoms: _67  and  _68
REMARK   29  A    between atoms: _67  and  _70
REMARK   30  A    between atoms: _70  and  _71
REMARK   31  A    between atoms: _74  and  _76
REMARK   32  A    between atoms: _76  and  _77
REMARK   33  A    between atoms: _76  and  _79
REMARK   34  A    between atoms: _79  and  _80
REMARK   35  A    between atoms: _83  and  _85
REMARK   36  A    between atoms: _85  and  _86
REMARK   37  A    between atoms: _85  and  _88
REMARK   38  A    between atoms: _88  and  _89
REMARK   39  A    between atoms: _92  and  _94
REMARK   40  A    between atoms: _94  and  _95
REMARK   41  A    between atoms: _94  and  _97
REMARK   42  A    between atoms: _100  and  _102
REMARK   43  A    between atoms: _102  and  _103
REMARK   44  A    between atoms: _102  and  _105
REMARK   45  A    between atoms: _105  and  _106
REMARK   46  A    between atoms: _109  and  _111
REMARK   47  A    between atoms: _111  and  _112
REMARK   48  A    between atoms: _114  and  _116
REMARK   49  A    between atoms: _116  and  _117
REMARK   50  A    between atoms: _119  and  _121
REMARK   51  A    between atoms: _121  and  _122
REMARK   52  A    between atoms: _121  and  _124
REMARK   53  A    between atoms: _124  and  _125
REMARK   54  A    between atoms: _128  and  _130
REMARK   55  A    between atoms: _130  and  _131
REMARK   56  A    between atoms: _133  and  _135
REMARK   57  A    between atoms: _135  and  _136
REMARK   58  A    between atoms: _138  and  _140
REMARK   59  A    between atoms: _140  and  _141
REMARK   60  A    between atoms: _140  and  _143
REMARK   61  A    between atoms: _143  and  _144
REMARK   62  A    between atoms: _150  and  _152
REMARK   63  A    between atoms: _152  and  _153
REMARK   64  A    between atoms: _152  and  _155
REMARK   65  A    between atoms: _155  and  _156
REMARK   66  A    between atoms: _159  and  _161
REMARK   67  A    between atoms: _161  and  _162
REMARK   68  A    between atoms: _161  and  _164
REMARK   69  A    between atoms: _164  and  _165
REMARK   70  A    between atoms: _169  and  _170
REMARK   71  A    between atoms: _175  and  _177
REMARK   72  A    between atoms: _177  and  _178
REMARK   73  A    between atoms: _177  and  _180
REMARK   74  A    between atoms: _180  and  _181
REMARK   75  A    between atoms: _185  and  _186
REMARK   76  A    between atoms: _191  and  _193
REMARK   77  A    between atoms: _193  and  _194
REMARK   78  A    between atoms: _193  and  _196
REMARK   79  A    between atoms: _199  and  _201
REMARK   80  A    between atoms: _201  and  _202
REMARK   81  A    between atoms: _201  and  _204
REMARK   82  A    between atoms: _204  and  _205
REMARK   83  A    between atoms: _210  and  _212
REMARK   84  A    between atoms: _212  and  _213
REMARK   85  A    between atoms: _212  and  _215
REMARK   86  A    between atoms: _215  and  _216
REMARK   87  A    between atoms: _219  and  _221
REMARK   88  A    between atoms: _221  and  _222
REMARK   89  A    between atoms: _221  and  _224
REMARK   90  A    between atoms: _224  and  _225
REMARK   91  A    between atoms: _228  and  _230
REMARK   92  A    between atoms: _230  and  _231
REMARK   93  A    between atoms: _233  and  _235
REMARK   94  A    between atoms: _235  and  _236
REMARK   95  A    between atoms: _235  and  _238
REMARK   96  A    between atoms: _238  and  _239
REMARK   97  A    between atoms: _239  and  _240
REMARK   98  A    between atoms: _240  and  _241
REMARK   99  A    between atoms: _250  and  _252
REMARK  100  A    between atoms: _252  and  _253
REMARK  101  A    between atoms: _252  and  _255
REMARK  102  A    between atoms: _255  and  _256
REMARK  103  A    between atoms: _256  and  _257
REMARK  104  A    between atoms: _257  and  _258
REMARK  105  A    between atoms: _267  and  _269
REMARK  106  A    between atoms: _269  and  _270
REMARK  107  A    between atoms: _269  and  _272
REMARK  108  A    between atoms: _272  and  _273
REMARK  109  A    between atoms: _276  and  _278
REMARK  110  A    between atoms: _278  and  _279
REMARK  111  A    between atoms: _278  and  _281
REMARK  112  A    between atoms: _281  and  _282
REMARK  113  A    between atoms: _285  and  _287
REMARK  114  A    between atoms: _287  and  _288
REMARK  115  A    between atoms: _287  and  _290
REMARK  116  A    between atoms: _290  and  _291
REMARK  117  A    between atoms: _294  and  _296
REMARK  118  A    between atoms: _296  and  _297
REMARK  119  A    between atoms: _296  and  _299
REMARK  120  A    between atoms: _299  and  _300
REMARK  121  A    between atoms: _303  and  _305
REMARK  122  A    between atoms: _305  and  _306
REMARK  123  A    between atoms: _308  and  _310
REMARK  124  A    between atoms: _310  and  _311
REMARK  125  A    between atoms: _314  and  _316
REMARK  126  A    between atoms: _316  and  _317
REMARK  127  A    between atoms: _316  and  _319
REMARK  128  A    between atoms: _319  and  _320
REMARK  129  A    between atoms: _323  and  _325
REMARK  130  A    between atoms: _325  and  _326
REMARK  131  A    between atoms: _325  and  _328
REMARK  132  A    between atoms: _328  and  _329
REMARK  133  A    between atoms: _332  and  _334
REMARK  134  A    between atoms: _334  and  _335
REMARK  135  A    between atoms: _334  and  _337
REMARK  136  A    between atoms: _337  and  _338
REMARK  137  A    between atoms: _341  and  _343
REMARK  138  A    between atoms: _343  and  _344
REMARK  139  A    between atoms: _343  and  _346
REMARK  140  A    between atoms: _349  and  _351
REMARK  141  A    between atoms: _351  and  _352
REMARK  142  A    between atoms: _351  and  _354
REMARK  143  A    between atoms: _354  and  _355
REMARK  144  A    between atoms: _355  and  _356
REMARK  145  A    between atoms: _356  and  _357
REMARK  146  A    between atoms: _357  and  _358
REMARK  147  A    between atoms: _362  and  _364
REMARK  148  A    between atoms: _364  and  _365
REMARK  149  A    between atoms: _364  and  _367
REMARK  150  A    between atoms: _367  and  _368
REMARK  151  A    between atoms: _368  and  _369
REMARK  152  A    between atoms: _371  and  _373
REMARK  153  A    between atoms: _373  and  _374
REMARK  154  A    between atoms: _373  and  _376
REMARK  155  A    between atoms: _376  and  _377
REMARK  156  A    between atoms: _380  and  _382
REMARK  157  A    between atoms: _382  and  _383
REMARK  158  A    between atoms: _385  and  _387
REMARK  159  A    between atoms: _387  and  _388
REMARK  160  A    between atoms: _390  and  _392
REMARK  161  A    between atoms: _392  and  _393
REMARK  162  A    between atoms: _392  and  _395
REMARK  163  A    between atoms: _395  and  _396
REMARK  164  A    between atoms: _399  and  _401
REMARK  165  A    between atoms: _401  and  _402
REMARK  166  A    between atoms: _404  and  _406
REMARK  167  A    between atoms: _406  and  _407
REMARK  168  A    between atoms: _409  and  _411
REMARK  169  A    between atoms: _411  and  _412
REMARK  170  A    between atoms: _411  and  _414
REMARK  171  A    between atoms: _414  and  _415
REMARK  172  A    between atoms: _421  and  _423
REMARK  173  A    between atoms: _423  and  _424
REMARK  174  A    between atoms: _423  and  _426
REMARK  175  A    between atoms: _426  and  _427
REMARK  176  A    between atoms: _430  and  _432
REMARK  177  A    between atoms: _432  and  _433
REMARK  178  A    between atoms: _432  and  _435
REMARK  179  A    between atoms: _438  and  _440
REMARK  180  A    between atoms: _440  and  _441
REMARK  181  A    between atoms: _440  and  _443
REMARK  182  A    between atoms: _443  and  _444
REMARK  183  A    between atoms: _448  and  _449
REMARK  184  A    between atoms: _454  and  _456
REMARK  185  A    between atoms: _456  and  _457
REMARK  186  A    between atoms: _456  and  _459
REMARK  187  A    between atoms: _459  and  _460
REMARK  188  A    between atoms: _464  and  _465
REMARK  189  A    between atoms: _470  and  _472
REMARK  190  A    between atoms: _472  and  _473
REMARK  191  A    between atoms: _472  and  _475
REMARK  192  A    between atoms: _478  and  _480
REMARK  193  A    between atoms: _480  and  _481
REMARK  194  A    between atoms: _480  and  _483
REMARK  195  A    between atoms: _483  and  _484
REMARK  196  A    between atoms: _489  and  _491
REMARK  197  A    between atoms: _491  and  _492
REMARK  198  A    between atoms: _491  and  _494
REMARK  199  A    between atoms: _494  and  _495
REMARK  200  A    between atoms: _498  and  _500
REMARK  201  A    between atoms: _500  and  _501
REMARK  202  A    between atoms: _500  and  _503
REMARK  203  A    between atoms: _503  and  _504
REMARK  204  A    between atoms: _507  and  _509
REMARK  205  A    between atoms: _509  and  _510
REMARK  206  A    between atoms: _512  and  _514
REMARK  207  A    between atoms: _514  and  _515
REMARK  208  A    between atoms: _514  and  _517
REMARK  209  A    between atoms: _517  and  _518
REMARK  210  A    between atoms: _518  and  _519
REMARK  211  A    between atoms: _519  and  _520
REMARK  212  A    between atoms: _529  and  _531
REMARK  213  A    between atoms: _531  and  _532
REMARK  214  A    between atoms: _531  and  _534
REMARK  215  A    between atoms: _534  and  _535
REMARK                            x       y       z     vdW  Elec       q    Type
REMARK                         _______ _______ _______ _____ _____    ______ ____
ROOT
ATOM      1  C   ILE A   4      17.814  33.915   8.531  0.00  0.00    +0.241 C 
ATOM      2  O   ILE A   4      18.898  34.335   8.926  0.00  0.00    -0.273 OA
ATOM      3  N   GLY A   5      17.199  34.435   7.483  0.00  0.00    -0.295 N 
ATOM      4  H   GLY A   5      16.315  34.008   7.140  0.00  0.00    +0.150 HD
ENDROOT
BRANCH   3   5
ATOM      5  CA  GLY A   5      17.745  35.594   6.809  0.00  0.00    +0.176 C 
BRANCH   5   6
ATOM      6  C   GLY A   5      18.510  35.220   5.566  0.00  0.00    +0.243 C 
ATOM      7  N   GLY A   6      18.865  33.946   5.418  0.00  0.00    -0.295 N 
ATOM      8  H   GLY A   6      18.737  33.291   6.216  0.00  0.00    +0.150 HD
ATOM      9  O   GLY A   5      18.763  36.088   4.746  0.00  0.00    -0.273 OA
BRANCH   7  10
ATOM     10  CA  GLY A   6      19.429  33.438   4.169  0.00  0.00    +0.176 C 
BRANCH  10  11
ATOM     11  C   GLY A   6      20.792  32.800   4.352  0.00  0.00    +0.243 C 
ATOM     12  O   GLY A   6      21.100  32.285   5.427  0.00  0.00    -0.273 OA
ATOM     13  N   PHE A   7      21.628  32.880   3.322  0.00  0.00    -0.297 N 
ATOM     14  H   PHE A   7      21.370  33.471   2.506  0.00  0.00    +0.150 HD
BRANCH  13  15
ATOM     15  CA  PHE A   7      22.899  32.161   3.305  0.00  0.00    +0.153 C 
BRANCH  15  16
ATOM     16  C   PHE A   7      24.081  33.116   3.364  0.00  0.00    +0.241 C 
ATOM     17  N   ILE A   8      25.176  32.660   3.964  0.00  0.00    -0.298 N 
ATOM     18  H   ILE A   8      25.131  31.745   4.456  0.00  0.00    +0.150 HD
ATOM     19  O   PHE A   7      23.992  34.237   2.877  0.00  0.00    -0.273 OA
BRANCH  17  20
ATOM     20  CA  ILE A   8      26.441  33.392   3.961  0.00  0.00    +0.137 C 
BRANCH  20  21
ATOM     21  C   ILE A   8      27.572  32.477   3.478  0.00  0.00    +0.227 C 
ATOM     22  O   ILE A   8      27.466  31.245   3.519  0.00  0.00    -0.286 OA
ENDBRANCH  20  21
BRANCH  20  23
ATOM     23  CB  ILE A   8      26.811  33.970   5.356  0.00  0.00    +0.026 C 
ATOM     24  CG2 ILE A   8      25.759  34.989   5.834  0.00  0.00    +0.002 C 
BRANCH  23  25
ATOM     25  CG1 ILE A   8      26.979  32.856   6.397  0.00  0.00    +0.002 C 
ATOM     26  CD1 ILE A   8      27.606  33.320   7.721  0.00  0.00    +0.000 C 
ENDBRANCH  23  25
ENDBRANCH  20  23
ENDBRANCH  17  20
ENDBRANCH  15  16
BRANCH  15  27
ATOM     27  CB  PHE A   7      22.973  31.283   2.050  0.00  0.00    +0.055 C 
BRANCH  27  28
ATOM     28  CG  PHE A   7      22.134  30.047   2.155  0.00  0.00    -0.020 A 
ATOM     29  CD2 PHE A   7      22.721  28.808   2.357  0.00  0.00    -0.004 A 
ATOM     30  CE2 PHE A   7      21.939  27.667   2.487  0.00  0.00    -0.000 A 
ATOM     31  CZ  PHE A   7      20.559  27.764   2.426  0.00  0.00    -0.000 A 
ATOM     32  CE1 PHE A   7      19.960  28.994   2.236  0.00  0.00    -0.000 A 
ATOM     33  CD1 PHE A   7      20.750  30.132   2.103  0.00  0.00    -0.004 A 
ENDBRANCH  27  28
ENDBRANCH  15  27
ENDBRANCH  13  15
ENDBRANCH  10  11
ENDBRANCH   7  10
ENDBRANCH   5   6
ENDBRANCH   3   5
BRANCH   1  34
ATOM     34  CA  ILE A   4      17.115  32.750   9.231  0.00  0.00    +0.149 C 
BRANCH  34  36
ATOM     35  C   GLY A   3      18.584  31.038   8.367  0.00  0.00    +0.243 C 
ATOM     36  N   ILE A   4      18.117  31.719   9.407  0.00  0.00    -0.297 N 
ATOM     37  H   ILE A   4      18.475  31.509  10.360  0.00  0.00    +0.150 HD
ATOM     38  O   GLY A   3      18.102  31.119   7.236  0.00  0.00    -0.273 OA
BRANCH  35  39
ATOM     39  CA  GLY A   3      19.759  30.130   8.639  0.00  0.00    +0.176 C 
BRANCH  39  42
ATOM     40  C   GLY A   2      21.408  29.065   7.201  0.00  0.00    +0.243 C 
ATOM     41  O   GLY A   2      21.580  28.135   7.983  0.00  0.00    -0.273 OA
ATOM     42  N   GLY A   3      20.601  30.083   7.449  0.00  0.00    -0.295 N 
ATOM     43  H   GLY A   3      20.566  30.874   6.775  0.00  0.00    +0.150 HD
BRANCH  40  44
ATOM     44  CA  GLY A   2      22.124  29.136   5.868  0.00  0.00    +0.176 C 
BRANCH  44  46
ATOM     45  C   ILE A   1      24.478  28.890   5.351  0.00  0.00    +0.238 C 
ATOM     46  N   GLY A   2      23.350  28.355   5.803  0.00  0.00    -0.296 N 
ATOM     47  H   GLY A   2      23.343  27.363   6.115  0.00  0.00    +0.150 HD
ATOM     48  O   ILE A   1      24.593  30.083   5.026  0.00  0.00    -0.274 OA
BRANCH  45  49
ATOM     49  CA  ILE A   1      25.650  27.934   5.256  0.00  0.00    +0.145 C 
BRANCH  49  50
ATOM     50  N   ILE A   1      26.616  28.403   4.276  0.00  0.00    -0.238 NA
ATOM     51  H   ILE A   1      26.914  29.399   4.296  0.00  0.00    +0.142 HD
ENDBRANCH  49  50
BRANCH  49  52
ATOM     52  CB  ILE A   1      26.265  27.745   6.660  0.00  0.00    +0.025 C 
ATOM     53  CG2 ILE A   1      27.279  26.608   6.636  0.00  0.00    +0.002 C 
BRANCH  52  54
ATOM     54  CG1 ILE A   1      26.837  29.065   7.207  0.00  0.00    +0.002 C 
ATOM     55  CD1 ILE A   1      27.299  28.960   8.649  0.00  0.00    +0.000 C 
ENDBRANCH  52  54
ENDBRANCH  49  52
ENDBRANCH  45  49
ENDBRANCH  44  46
ENDBRANCH  40  44
ENDBRANCH  39  42
ENDBRANCH  35  39
ENDBRANCH  34  36
BRANCH  34  56
ATOM     56  CB  ILE A   4      16.504  33.165  10.585  0.00  0.00    +0.027 C 
ATOM     57  CG2 ILE A   4      16.125  34.649  10.592  0.00  0.00    +0.002 C 
BRANCH  56  58
ATOM     58  CG1 ILE A   4      15.259  32.314  10.873  0.00  0.00    +0.002 C 
ATOM     59  CD1 ILE A   4      14.579  32.630  12.201  0.00  0.00    +0.000 C 
ENDBRANCH  56  58
ENDBRANCH  34  56
ENDBRANCH   1  34
TORSDOF 24
REMARK  Name = ../refined-set-2016/2qi5/2qi5_pocket.pdb
REMARK  215 active torsions:
REMARK  status: ('A' for Active; 'I' for Inactive)
REMARK    1  A    between atoms: _1  and  _3
REMARK    2  A    between atoms: _3  and  _4
REMARK    3  A    between atoms: _3  and  _6
REMARK    4  A    between atoms: _6  and  _7
REMARK    5  A    between atoms: _7  and  _8
REMARK    6  A    between atoms: _8  and  _9
REMARK    7  A    between atoms: _18  and  _20
REMARK    8  A    between atoms: _20  and  _21
REMARK    9  A    between atoms: _20  and  _23
REMARK   10  A    between atoms: _23  and  _24
REMARK   11  A    between atoms: _27  and  _29
REMARK   12  A    between atoms: _29  and  _30
REMARK   13  A    between atoms: _29  and  _32
REMARK   14  A    between atoms: _32  and  _33
REMARK   15  A    between atoms: _36  and  _38
REMARK   16  A    between atoms: _38  and  _39
REMARK   17  A    between atoms: _38  and  _41
REMARK   18  A    between atoms: _41  and  _42
REMARK   19  A    between atoms: _45  and  _47
REMARK   20  A    between atoms: _47  and  _48
REMARK   21  A    between atoms: _47  and  _50
REMARK   22  A    between atoms: _50  and  _51
REMARK   23  A    between atoms: _54  and  _56
REMARK   24  A    between atoms: _56  and  _57
REMARK   25  A    between atoms: _59  and  _61
REMARK   26  A    between atoms: _61  and  _62
REMARK   27  A    between atoms: _65  and  _67
REMARK   28  A    between atoms: _67  and  _68
REMARK   29  A    between atoms: _67  and  _70
REMARK   30  A    between atoms: _70  and  _71
REMARK   31  A    between atoms: _74  and  _76
REMARK   32  A    between atoms: _76  and  _77
REMARK   33  A    between atoms: _76  and  _79
REMARK   34  A    between atoms: _79  and  _80
REMARK   35  A    between atoms: _83  and  _85
REMARK   36  A    between atoms: _85  and  _86
REMARK   37  A    between atoms: _85  and  _88
REMARK   38  A    between atoms: _88  and  _89
REMARK   39  A    between atoms: _92  and  _94
REMARK   40  A    between atoms: _94  and  _95
REMARK   41  A    between atoms: _94  and  _97
REMARK   42  A    between atoms: _100  and  _102
REMARK   43  A    between atoms: _102  and  _103
REMARK   44  A    between atoms: _102  and  _105
REMARK   45  A    between atoms: _105  and  _106
REMARK   46  A    between atoms: _109  and  _111
REMARK   47  A    between atoms: _111  and  _112
REMARK   48  A    between atoms: _114  and  _116
REMARK   49  A    between atoms: _116  and  _117
REMARK   50  A    between atoms: _119  and  _121
REMARK   51  A    between atoms: _121  and  _122
REMARK   52  A    between atoms: _121  and  _124
REMARK   53  A    between atoms: _124  and  _125
REMARK   54  A    between atoms: _128  and  _130
REMARK   55  A    between atoms: _130  and  _131
REMARK   56  A    between atoms: _133  and  _135
REMARK   57  A    between atoms: _135  and  _136
REMARK   58  A    between atoms: _138  and  _140
REMARK   59  A    between atoms: _140  and  _141
REMARK   60  A    between atoms: _140  and  _143
REMARK   61  A    between atoms: _143  and  _144
REMARK   62  A    between atoms: _150  and  _152
REMARK   63  A    between atoms: _152  and  _153
REMARK   64  A    between atoms: _152  and  _155
REMARK   65  A    between atoms: _155  and  _156
REMARK   66  A    between atoms: _159  and  _161
REMARK   67  A    between atoms: _161  and  _162
REMARK   68  A    between atoms: _161  and  _164
REMARK   69  A    between atoms: _164  and  _165
REMARK   70  A    between atoms: _169  and  _170
REMARK   71  A    between atoms: _175  and  _177
REMARK   72  A    between atoms: _177  and  _178
REMARK   73  A    between atoms: _177  and  _180
REMARK   74  A    between atoms: _180  and  _181
REMARK   75  A    between atoms: _185  and  _186
REMARK   76  A    between atoms: _191  and  _193
REMARK   77  A    between atoms: _193  and  _194
REMARK   78  A    between atoms: _193  and  _196
REMARK   79  A    between atoms: _199  and  _201
REMARK   80  A    between atoms: _201  and  _202
REMARK   81  A    between atoms: _201  and  _204
REMARK   82  A    between atoms: _204  and  _205
REMARK   83  A    between atoms: _210  and  _212
REMARK   84  A    between atoms: _212  and  _213
REMARK   85  A    between atoms: _212  and  _215
REMARK   86  A    between atoms: _215  and  _216
REMARK   87  A    between atoms: _219  and  _221
REMARK   88  A    between atoms: _221  and  _222
REMARK   89  A    between atoms: _221  and  _224
REMARK   90  A    between atoms: _224  and  _225
REMARK   91  A    between atoms: _228  and  _230
REMARK   92  A    between atoms: _230  and  _231
REMARK   93  A    between atoms: _233  and  _235
REMARK   94  A    between atoms: _235  and  _236
REMARK   95  A    between atoms: _235  and  _238
REMARK   96  A    between atoms: _238  and  _239
REMARK   97  A    between atoms: _239  and  _240
REMARK   98  A    between atoms: _240  and  _241
REMARK   99  A    between atoms: _250  and  _252
REMARK  100  A    between atoms: _252  and  _253
REMARK  101  A    between atoms: _252  and  _255
REMARK  102  A    between atoms: _255  and  _256
REMARK  103  A    between atoms: _256  and  _257
REMARK  104  A    between atoms: _257  and  _258
REMARK  105  A    between atoms: _267  and  _269
REMARK  106  A    between atoms: _269  and  _270
REMARK  107  A    between atoms: _269  and  _272
REMARK  108  A    between atoms: _272  and  _273
REMARK  109  A    between atoms: _276  and  _278
REMARK  110  A    between atoms: _278  and  _279
REMARK  111  A    between atoms: _278  and  _281
REMARK  112  A    between atoms: _281  and  _282
REMARK  113  A    between atoms: _285  and  _287
REMARK  114  A    between atoms: _287  and  _288
REMARK  115  A    between atoms: _287  and  _290
REMARK  116  A    between atoms: _290  and  _291
REMARK  117  A    between atoms: _294  and  _296
REMARK  118  A    between atoms: _296  and  _297
REMARK  119  A    between atoms: _296  and  _299
REMARK  120  A    between atoms: _299  and  _300
REMARK  121  A    between atoms: _303  and  _305
REMARK  122  A    between atoms: _305  and  _306
REMARK  123  A    between atoms: _308  and  _310
REMARK  124  A    between atoms: _310  and  _311
REMARK  125  A    between atoms: _314  and  _316
REMARK  126  A    between atoms: _316  and  _317
REMARK  127  A    between atoms: _316  and  _319
REMARK  128  A    between atoms: _319  and  _320
REMARK  129  A    between atoms: _323  and  _325
REMARK  130  A    between atoms: _325  and  _326
REMARK  131  A    between atoms: _325  and  _328
REMARK  132  A    between atoms: _328  and  _329
REMARK  133  A    between atoms: _332  and  _334
REMARK  134  A    between atoms: _334  and  _335
REMARK  135  A    between atoms: _334  and  _337
REMARK  136  A    between atoms: _337  and  _338
REMARK  137  A    between atoms: _341  and  _343
REMARK  138  A    between atoms: _343  and  _344
REMARK  139  A    between atoms: _343  and  _346
REMARK  140  A    between atoms: _349  and  _351
REMARK  141  A    between atoms: _351  and  _352
REMARK  142  A    between atoms: _351  and  _354
REMARK  143  A    between atoms: _354  and  _355
REMARK  144  A    between atoms: _355  and  _356
REMARK  145  A    between atoms: _356  and  _357
REMARK  146  A    between atoms: _357  and  _358
REMARK  147  A    between atoms: _362  and  _364
REMARK  148  A    between atoms: _364  and  _365
REMARK  149  A    between atoms: _364  and  _367
REMARK  150  A    between atoms: _367  and  _368
REMARK  151  A    between atoms: _368  and  _369
REMARK  152  A    between atoms: _371  and  _373
REMARK  153  A    between atoms: _373  and  _374
REMARK  154  A    between atoms: _373  and  _376
REMARK  155  A    between atoms: _376  and  _377
REMARK  156  A    between atoms: _380  and  _382
REMARK  157  A    between atoms: _382  and  _383
REMARK  158  A    between atoms: _385  and  _387
REMARK  159  A    between atoms: _387  and  _388
REMARK  160  A    between atoms: _390  and  _392
REMARK  161  A    between atoms: _392  and  _393
REMARK  162  A    between atoms: _392  and  _395
REMARK  163  A    between atoms: _395  and  _396
REMARK  164  A    between atoms: _399  and  _401
REMARK  165  A    between atoms: _401  and  _402
REMARK  166  A    between atoms: _404  and  _406
REMARK  167  A    between atoms: _406  and  _407
REMARK  168  A    between atoms: _409  and  _411
REMARK  169  A    between atoms: _411  and  _412
REMARK  170  A    between atoms: _411  and  _414
REMARK  171  A    between atoms: _414  and  _415
REMARK  172  A    between atoms: _421  and  _423
REMARK  173  A    between atoms: _423  and  _424
REMARK  174  A    between atoms: _423  and  _426
REMARK  175  A    between atoms: _426  and  _427
REMARK  176  A    between atoms: _430  and  _432
REMARK  177  A    between atoms: _432  and  _433
REMARK  178  A    between atoms: _432  and  _435
REMARK  179  A    between atoms: _438  and  _440
REMARK  180  A    between atoms: _440  and  _441
REMARK  181  A    between atoms: _440  and  _443
REMARK  182  A    between atoms: _443  and  _444
REMARK  183  A    between atoms: _448  and  _449
REMARK  184  A    between atoms: _454  and  _456
REMARK  185  A    between atoms: _456  and  _457
REMARK  186  A    between atoms: _456  and  _459
REMARK  187  A    between atoms: _459  and  _460
REMARK  188  A    between atoms: _464  and  _465
REMARK  189  A    between atoms: _470  and  _472
REMARK  190  A    between atoms: _472  and  _473
REMARK  191  A    between atoms: _472  and  _475
REMARK  192  A    between atoms: _478  and  _480
REMARK  193  A    between atoms: _480  and  _481
REMARK  194  A    between atoms: _480  and  _483
REMARK  195  A    between atoms: _483  and  _484
REMARK  196  A    between atoms: _489  and  _491
REMARK  197  A    between atoms: _491  and  _492
REMARK  198  A    between atoms: _491  and  _494
REMARK  199  A    between atoms: _494  and  _495
REMARK  200  A    between atoms: _498  and  _500
REMARK  201  A    between atoms: _500  and  _501
REMARK  202  A    between atoms: _500  and  _503
REMARK  203  A    between atoms: _503  and  _504
REMARK  204  A    between atoms: _507  and  _509
REMARK  205  A    between atoms: _509  and  _510
REMARK  206  A    between atoms: _512  and  _514
REMARK  207  A    between atoms: _514  and  _515
REMARK  208  A    between atoms: _514  and  _517
REMARK  209  A    between atoms: _517  and  _518
REMARK  210  A    between atoms: _518  and  _519
REMARK  211  A    between atoms: _519  and  _520
REMARK  212  A    between atoms: _529  and  _531
REMARK  213  A    between atoms: _531  and  _532
REMARK  214  A    between atoms: _531  and  _534
REMARK  215  A    between atoms: _534  and  _535
REMARK                            x       y       z     vdW  Elec       q    Type
REMARK                         _______ _______ _______ _____ _____    ______ ____
ROOT
ATOM      1  CA  LEU A   1      33.510  27.596  10.092  0.00  0.00    +0.133 C 
ENDROOT
BRANCH   1   2
ATOM      2  N   LEU A   1      33.775  26.682  11.201  0.00  0.00    -0.239 NA
ATOM      3  H   LEU A   1      33.022  26.507  11.896  0.00  0.00    +0.142 HD
ENDBRANCH   1   2
BRANCH   1   4
ATOM      4  C   LEU A   1      33.776  29.027  10.540  0.00  0.00    +0.224 C 
ATOM      5  O   LEU A   1      33.463  29.401  11.667  0.00  0.00    -0.287 OA
ENDBRANCH   1   4
BRANCH   1   6
ATOM      6  CB  LEU A   1      32.064  27.476   9.605  0.00  0.00    +0.025 C 
BRANCH   6   7
ATOM      7  CG  LEU A   1      31.566  26.053   9.355  0.00  0.00    +0.002 C 
ATOM      8  CD2 LEU A   1      30.114  26.070   8.912  0.00  0.00    +0.000 C 
ATOM      9  CD1 LEU A   1      32.433  25.358   8.305  0.00  0.00    +0.000 C 
ENDBRANCH   6   7
ENDBRANCH   1   6
TORSDOF 4
REMARK  Name = ../refined-set-2016/2qi5/2qi5_pocket.pdb
REMARK  215 active torsions:
REMARK  status: ('A' for Active; 'I' for Inactive)
REMARK    1  A    between atoms: _1  and  _3
REMARK    2  A    between atoms: _3  and  _4
REMARK    3  A    between atoms: _3  and  _6
REMARK    4  A    between atoms: _6  and  _7
REMARK    5  A    between atoms: _7  and  _8
REMARK    6  A    between atoms: _8  and  _9
REMARK    7  A    between atoms: _18  and  _20
REMARK    8  A    between atoms: _20  and  _21
REMARK    9  A    between atoms: _20  and  _23
REMARK   10  A    between atoms: _23  and  _24
REMARK   11  A    between atoms: _27  and  _29
REMARK   12  A    between atoms: _29  and  _30
REMARK   13  A    between atoms: _29  and  _32
REMARK   14  A    between atoms: _32  and  _33
REMARK   15  A    between atoms: _36  and  _38
REMARK   16  A    between atoms: _38  and  _39
REMARK   17  A    between atoms: _38  and  _41
REMARK   18  A    between atoms: _41  and  _42
REMARK   19  A    between atoms: _45  and  _47
REMARK   20  A    between atoms: _47  and  _48
REMARK   21  A    between atoms: _47  and  _50
REMARK   22  A    between atoms: _50  and  _51
REMARK   23  A    between atoms: _54  and  _56
REMARK   24  A    between atoms: _56  and  _57
REMARK   25  A    between atoms: _59  and  _61
REMARK   26  A    between atoms: _61  and  _62
REMARK   27  A    between atoms: _65  and  _67
REMARK   28  A    between atoms: _67  and  _68
REMARK   29  A    between atoms: _67  and  _70
REMARK   30  A    between atoms: _70  and  _71
REMARK   31  A    between atoms: _74  and  _76
REMARK   32  A    between atoms: _76  and  _77
REMARK   33  A    between atoms: _76  and  _79
REMARK   34  A    between atoms: _79  and  _80
REMARK   35  A    between atoms: _83  and  _85
REMARK   36  A    between atoms: _85  and  _86
REMARK   37  A    between atoms: _85  and  _88
REMARK   38  A    between atoms: _88  and  _89
REMARK   39  A    between atoms: _92  and  _94
REMARK   40  A    between atoms: _94  and  _95
REMARK   41  A    between atoms: _94  and  _97
REMARK   42  A    between atoms: _100  and  _102
REMARK   43  A    between atoms: _102  and  _103
REMARK   44  A    between atoms: _102  and  _105
REMARK   45  A    between atoms: _105  and  _106
REMARK   46  A    between atoms: _109  and  _111
REMARK   47  A    between atoms: _111  and  _112
REMARK   48  A    between atoms: _114  and  _116
REMARK   49  A    between atoms: _116  and  _117
REMARK   50  A    between atoms: _119  and  _121
REMARK   51  A    between atoms: _121  and  _122
REMARK   52  A    between atoms: _121  and  _124
REMARK   53  A    between atoms: _124  and  _125
REMARK   54  A    between atoms: _128  and  _130
REMARK   55  A    between atoms: _130  and  _131
REMARK   56  A    between atoms: _133  and  _135
REMARK   57  A    between atoms: _135  and  _136
REMARK   58  A    between atoms: _138  and  _140
REMARK   59  A    between atoms: _140  and  _141
REMARK   60  A    between atoms: _140  and  _143
REMARK   61  A    between atoms: _143  and  _144
REMARK   62  A    between atoms: _150  and  _152
REMARK   63  A    between atoms: _152  and  _153
REMARK   64  A    between atoms: _152  and  _155
REMARK   65  A    between atoms: _155  and  _156
REMARK   66  A    between atoms: _159  and  _161
REMARK   67  A    between atoms: _161  and  _162
REMARK   68  A    between atoms: _161  and  _164
REMARK   69  A    between atoms: _164  and  _165
REMARK   70  A    between atoms: _169  and  _170
REMARK   71  A    between atoms: _175  and  _177
REMARK   72  A    between atoms: _177  and  _178
REMARK   73  A    between atoms: _177  and  _180
REMARK   74  A    between atoms: _180  and  _181
REMARK   75  A    between atoms: _185  and  _186
REMARK   76  A    between atoms: _191  and  _193
REMARK   77  A    between atoms: _193  and  _194
REMARK   78  A    between atoms: _193  and  _196
REMARK   79  A    between atoms: _199  and  _201
REMARK   80  A    between atoms: _201  and  _202
REMARK   81  A    between atoms: _201  and  _204
REMARK   82  A    between atoms: _204  and  _205
REMARK   83  A    between atoms: _210  and  _212
REMARK   84  A    between atoms: _212  and  _213
REMARK   85  A    between atoms: _212  and  _215
REMARK   86  A    between atoms: _215  and  _216
REMARK   87  A    between atoms: _219  and  _221
REMARK   88  A    between atoms: _221  and  _222
REMARK   89  A    between atoms: _221  and  _224
REMARK   90  A    between atoms: _224  and  _225
REMARK   91  A    between atoms: _228  and  _230
REMARK   92  A    between atoms: _230  and  _231
REMARK   93  A    between atoms: _233  and  _235
REMARK   94  A    between atoms: _235  and  _236
REMARK   95  A    between atoms: _235  and  _238
REMARK   96  A    between atoms: _238  and  _239
REMARK   97  A    between atoms: _239  and  _240
REMARK   98  A    between atoms: _240  and  _241
REMARK   99  A    between atoms: _250  and  _252
REMARK  100  A    between atoms: _252  and  _253
REMARK  101  A    between atoms: _252  and  _255
REMARK  102  A    between atoms: _255  and  _256
REMARK  103  A    between atoms: _256  and  _257
REMARK  104  A    between atoms: _257  and  _258
REMARK  105  A    between atoms: _267  and  _269
REMARK  106  A    between atoms: _269  and  _270
REMARK  107  A    between atoms: _269  and  _272
REMARK  108  A    between atoms: _272  and  _273
REMARK  109  A    between atoms: _276  and  _278
REMARK  110  A    between atoms: _278  and  _279
REMARK  111  A    between atoms: _278  and  _281
REMARK  112  A    between atoms: _281  and  _282
REMARK  113  A    between atoms: _285  and  _287
REMARK  114  A    between atoms: _287  and  _288
REMARK  115  A    between atoms: _287  and  _290
REMARK  116  A    between atoms: _290  and  _291
REMARK  117  A    between atoms: _294  and  _296
REMARK  118  A    between atoms: _296  and  _297
REMARK  119  A    between atoms: _296  and  _299
REMARK  120  A    between atoms: _299  and  _300
REMARK  121  A    between atoms: _303  and  _305
REMARK  122  A    between atoms: _305  and  _306
REMARK  123  A    between atoms: _308  and  _310
REMARK  124  A    between atoms: _310  and  _311
REMARK  125  A    between atoms: _314  and  _316
REMARK  126  A    between atoms: _316  and  _317
REMARK  127  A    between atoms: _316  and  _319
REMARK  128  A    between atoms: _319  and  _320
REMARK  129  A    between atoms: _323  and  _325
REMARK  130  A    between atoms: _325  and  _326
REMARK  131  A    between atoms: _325  and  _328
REMARK  132  A    between atoms: _328  and  _329
REMARK  133  A    between atoms: _332  and  _334
REMARK  134  A    between atoms: _334  and  _335
REMARK  135  A    between atoms: _334  and  _337
REMARK  136  A    between atoms: _337  and  _338
REMARK  137  A    between atoms: _341  and  _343
REMARK  138  A    between atoms: _343  and  _344
REMARK  139  A    between atoms: _343  and  _346
REMARK  140  A    between atoms: _349  and  _351
REMARK  141  A    between atoms: _351  and  _352
REMARK  142  A    between atoms: _351  and  _354
REMARK  143  A    between atoms: _354  and  _355
REMARK  144  A    between atoms: _355  and  _356
REMARK  145  A    between atoms: _356  and  _357
REMARK  146  A    between atoms: _357  and  _358
REMARK  147  A    between atoms: _362  and  _364
REMARK  148  A    between atoms: _364  and  _365
REMARK  149  A    between atoms: _364  and  _367
REMARK  150  A    between atoms: _367  and  _368
REMARK  151  A    between atoms: _368  and  _369
REMARK  152  A    between atoms: _371  and  _373
REMARK  153  A    between atoms: _373  and  _374
REMARK  154  A    between atoms: _373  and  _376
REMARK  155  A    between atoms: _376  and  _377
REMARK  156  A    between atoms: _380  and  _382
REMARK  157  A    between atoms: _382  and  _383
REMARK  158  A    between atoms: _385  and  _387
REMARK  159  A    between atoms: _387  and  _388
REMARK  160  A    between atoms: _390  and  _392
REMARK  161  A    between atoms: _392  and  _393
REMARK  162  A    between atoms: _392  and  _395
REMARK  163  A    between atoms: _395  and  _396
REMARK  164  A    between atoms: _399  and  _401
REMARK  165  A    between atoms: _401  and  _402
REMARK  166  A    between atoms: _404  and  _406
REMARK  167  A    between atoms: _406  and  _407
REMARK  168  A    between atoms: _409  and  _411
REMARK  169  A    between atoms: _411  and  _412
REMARK  170  A    between atoms: _411  and  _414
REMARK  171  A    between atoms: _414  and  _415
REMARK  172  A    between atoms: _421  and  _423
REMARK  173  A    between atoms: _423  and  _424
REMARK  174  A    between atoms: _423  and  _426
REMARK  175  A    between atoms: _426  and  _427
REMARK  176  A    between atoms: _430  and  _432
REMARK  177  A    between atoms: _432  and  _433
REMARK  178  A    between atoms: _432  and  _435
REMARK  179  A    between atoms: _438  and  _440
REMARK  180  A    between atoms: _440  and  _441
REMARK  181  A    between atoms: _440  and  _443
REMARK  182  A    between atoms: _443  and  _444
REMARK  183  A    between atoms: _448  and  _449
REMARK  184  A    between atoms: _454  and  _456
REMARK  185  A    between atoms: _456  and  _457
REMARK  186  A    between atoms: _456  and  _459
REMARK  187  A    between atoms: _459  and  _460
REMARK  188  A    between atoms: _464  and  _465
REMARK  189  A    between atoms: _470  and  _472
REMARK  190  A    between atoms: _472  and  _473
REMARK  191  A    between atoms: _472  and  _475
REMARK  192  A    between atoms: _478  and  _480
REMARK  193  A    between atoms: _480  and  _481
REMARK  194  A    between atoms: _480  and  _483
REMARK  195  A    between atoms: _483  and  _484
REMARK  196  A    between atoms: _489  and  _491
REMARK  197  A    between atoms: _491  and  _492
REMARK  198  A    between atoms: _491  and  _494
REMARK  199  A    between atoms: _494  and  _495
REMARK  200  A    between atoms: _498  and  _500
REMARK  201  A    between atoms: _500  and  _501
REMARK  202  A    between atoms: _500  and  _503
REMARK  203  A    between atoms: _503  and  _504
REMARK  204  A    between atoms: _507  and  _509
REMARK  205  A    between atoms: _509  and  _510
REMARK  206  A    between atoms: _512  and  _514
REMARK  207  A    between atoms: _514  and  _515
REMARK  208  A    between atoms: _514  and  _517
REMARK  209  A    between atoms: _517  and  _518
REMARK  210  A    between atoms: _518  and  _519
REMARK  211  A    between atoms: _519  and  _520
REMARK  212  A    between atoms: _529  and  _531
REMARK  213  A    between atoms: _531  and  _532
REMARK  214  A    between atoms: _531  and  _534
REMARK  215  A    between atoms: _534  and  _535
REMARK                            x       y       z     vdW  Elec       q    Type
REMARK                         _______ _______ _______ _____ _____    ______ ____
ROOT
ATOM      1  C   ASN A   5      29.380  32.156  18.188  0.00  0.00    +0.241 C 
ATOM      2  O   ASN A   5      28.746  32.302  19.235  0.00  0.00    -0.273 OA
ATOM      3  N   ILE A   6      29.272  31.086  17.398  0.00  0.00    -0.297 N 
ATOM      4  H   ILE A   6      29.912  31.006  16.582  0.00  0.00    +0.150 HD
ENDROOT
BRANCH   3   5
ATOM      5  CA  ILE A   6      28.301  30.025  17.624  0.00  0.00    +0.149 C 
BRANCH   5   6
ATOM      6  C   ILE A   6      28.989  28.677  17.814  0.00  0.00    +0.241 C 
ATOM      7  N   ILE A   7      28.730  28.027  18.948  0.00  0.00    -0.297 N 
ATOM      8  H   ILE A   7      28.224  28.520  19.711  0.00  0.00    +0.150 HD
ATOM      9  O   ILE A   6      29.758  28.245  16.961  0.00  0.00    -0.273 OA
BRANCH   7  10
ATOM     10  CA  ILE A   7      29.139  26.639  19.145  0.00  0.00    +0.149 C 
BRANCH  10  11
ATOM     11  C   ILE A   7      27.954  25.737  18.824  0.00  0.00    +0.241 C 
ATOM     12  O   ILE A   7      26.954  25.727  19.548  0.00  0.00    -0.273 OA
ATOM     13  N   GLY A   8      28.101  24.941  17.767  0.00  0.00    -0.295 N 
ATOM     14  H   GLY A   8      29.019  24.913  17.279  0.00  0.00    +0.150 HD
BRANCH  13  15
ATOM     15  CA  GLY A   8      27.014  24.111  17.277  0.00  0.00    +0.176 C 
BRANCH  15  16
ATOM     16  C   GLY A   8      27.154  22.666  17.698  0.00  0.00    +0.243 C 
ATOM     17  O   GLY A   8      28.086  22.284  18.414  0.00  0.00    -0.273 OA
ATOM     18  N   ARG A   9      26.213  21.863  17.226  0.00  0.00    -0.298 N 
ATOM     19  H   ARG A   9      25.551  22.228  16.512  0.00  0.00    +0.150 HD
BRANCH  18  20
ATOM     20  CA  ARG A   9      26.077  20.493  17.673  0.00  0.00    +0.137 C 
BRANCH  20  21
ATOM     21  C   ARG A   9      27.315  19.635  17.406  0.00  0.00    +0.227 C 
ATOM     22  O   ARG A   9      27.581  18.710  18.180  0.00  0.00    -0.286 OA
ENDBRANCH  20  21
BRANCH  20  23
ATOM     23  CB  ARG A   9      24.834  19.854  17.057  0.00  0.00    +0.031 C 
BRANCH  23  24
ATOM     24  CG  ARG A   9      23.532  20.434  17.586  0.00  0.00    +0.045 C 
BRANCH  24  25
ATOM     25  CD  ARG A   9      22.324  19.603  17.179  0.00  0.00    +0.174 C 
BRANCH  25  26
ATOM     26  NE  ARG A   9      22.171  19.564  15.726  0.00  0.00    -0.265 N 
ATOM     27  HE  ARG A   9      21.698  20.375  15.279  0.00  0.00    +0.259 HD
ATOM     28  CZ  ARG A   9      22.581  18.587  14.922  0.00  0.00    +0.342 C 
ATOM     29  NH2 ARG A   9      23.156  17.479  15.385  0.00  0.00    -0.292 N 
ATOM     30 HH21 ARG A   9      23.298  17.355  16.408  0.00  0.00    +0.255 HD
ATOM     31 HH22 ARG A   9      23.463  16.737  14.724  0.00  0.00    +0.255 HD
ATOM     32  NH1 ARG A   9      22.410  18.731  13.615  0.00  0.00    -0.292 N 
ATOM     33 HH11 ARG A   9      21.964  19.593  13.241  0.00  0.00    +0.255 HD
ATOM     34 HH12 ARG A   9      22.722  17.982  12.964  0.00  0.00    +0.255 HD
ENDBRANCH  25  26
ENDBRANCH  24  25
ENDBRANCH  23  24
ENDBRANCH  20  23
ENDBRANCH  18  20
ENDBRANCH  15  16
ENDBRANCH  13  15
ENDBRANCH  10  11
BRANCH  10  35
ATOM     35  CB  ILE A   7      29.611  26.351  20.581  0.00  0.00    +0.027 C 
ATOM     36  CG2 ILE A   7      30.054  24.890  20.705  0.00  0.00    +0.002 C 
BRANCH  35  37
ATOM     37  CG1 ILE A   7      30.757  27.282  21.006  0.00  0.00    +0.002 C 
ATOM     38  CD1 ILE A   7      31.989  27.262  20.080  0.00  0.00    +0.000 C 
ENDBRANCH  35  37
ENDBRANCH  10  35
ENDBRANCH   7  10
ENDBRANCH   5   6
BRANCH   5  39
ATOM     39  CB  ILE A   6      27.331  29.935  16.430  0.00  0.00    +0.027 C 
ATOM     40  CG2 ILE A   6      26.605  28.604  16.394  0.00  0.00    +0.002 C 
BRANCH  39  41
ATOM     41  CG1 ILE A   6      26.346  31.107  16.488  0.00  0.00    +0.002 C 
ATOM     42  CD1 ILE A   6      25.535  31.314  15.229  0.00  0.00    +0.000 C 
ENDBRANCH  39  41
ENDBRANCH   5  39
ENDBRANCH   3   5
BRANCH   1  43
ATOM     43  CA  ASN A   5      30.338  33.243  17.710  0.00  0.00    +0.158 C 
BRANCH  43  45
ATOM     44  C   VAL A   4      28.632  34.697  16.748  0.00  0.00    +0.241 C 
ATOM     45  N   ASN A   5      29.629  34.519  17.612  0.00  0.00    -0.297 N 
ATOM     46  H   ASN A   5      29.910  35.305  18.232  0.00  0.00    +0.150 HD
ATOM     47  O   VAL A   4      28.339  33.864  15.883  0.00  0.00    -0.273 OA
BRANCH  44  48
ATOM     48  CA  VAL A   4      27.832  36.000  16.861  0.00  0.00    +0.149 C 
BRANCH  48  51
ATOM     49  C   PRO A   3      27.064  37.617  15.209  0.00  0.00    +0.241 C 
ATOM     50  O   PRO A   3      27.248  38.566  15.970  0.00  0.00    -0.273 OA
ATOM     51  N   VAL A   4      27.285  36.354  15.561  0.00  0.00    -0.297 N 
ATOM     52  H   VAL A   4      27.060  35.596  14.886  0.00  0.00    +0.150 HD
BRANCH  49  56
ATOM     53  C   THR A   2      27.996  36.492  12.450  0.00  0.00    +0.246 C 
ATOM     54  O   THR A   2      28.966  37.132  12.838  0.00  0.00    -0.273 OA
ATOM     55  N   PRO A   3      26.744  36.801  12.822  0.00  0.00    -0.272 N 
ATOM     56  CA  PRO A   3      26.508  37.865  13.806  0.00  0.00    +0.152 C 
ATOM     57  CB  PRO A   3      24.982  37.941  13.882  0.00  0.00    +0.031 C 
ATOM     58  CG  PRO A   3      24.496  37.335  12.610  0.00  0.00    +0.024 C 
ATOM     59  CD  PRO A   3      25.477  36.252  12.311  0.00  0.00    +0.094 C 
BRANCH  53  60
ATOM     60  CA  THR A   2      28.187  35.322  11.489  0.00  0.00    +0.176 C 
BRANCH  60  62
ATOM     61  C   PRO A   1      29.093  36.540   9.596  0.00  0.00    +0.239 C 
ATOM     62  N   THR A   2      29.246  35.614  10.537  0.00  0.00    -0.295 N 
ATOM     63  H   THR A   2      30.141  35.088  10.593  0.00  0.00    +0.150 HD
ATOM     64  O   PRO A   1      28.015  37.089   9.372  0.00  0.00    -0.274 OA
BRANCH  61  66
ATOM     65  N   PRO A   1      31.106  35.777   8.284  0.00  0.00    -0.210 NA
ATOM     66  CA  PRO A   1      30.345  36.914   8.799  0.00  0.00    +0.149 C 
ATOM     67  CB  PRO A   1      30.007  37.698   7.532  0.00  0.00    +0.028 C 
ATOM     68  CG  PRO A   1      29.936  36.683   6.476  0.00  0.00    +0.021 C 
ATOM     69  CD  PRO A   1      30.890  35.583   6.839  0.00  0.00    +0.089 C 
ENDBRANCH  61  66
ENDBRANCH  60  62
BRANCH  60  70
ATOM     70  CB  THR A   2      28.469  34.054  12.312  0.00  0.00    +0.137 C 
ATOM     71  CG2 THR A   2      29.807  34.131  13.070  0.00  0.00    +0.034 C 
BRANCH  70  72
ATOM     72  OG1 THR A   2      27.390  33.866  13.235  0.00  0.00    -0.382 OA
ATOM     73  HG1 THR A   2      27.556  33.052  13.774  0.00  0.00    +0.210 HD
ENDBRANCH  70  72
ENDBRANCH  60  70
ENDBRANCH  53  60
ENDBRANCH  49  56
ENDBRANCH  48  51
BRANCH  48  74
ATOM     74  CB  VAL A   4      26.684  35.871  17.907  0.00  0.00    +0.027 C 
ATOM     75  CG2 VAL A   4      27.219  35.591  19.281  0.00  0.00    +0.002 C 
ATOM     76  CG1 VAL A   4      25.692  34.787  17.531  0.00  0.00    +0.002 C 
ENDBRANCH  48  74
ENDBRANCH  44  48
ENDBRANCH  43  45
BRANCH  43  77
ATOM     77  CB  ASN A   5      31.514  33.325  18.685  0.00  0.00    +0.114 C 
BRANCH  77  78
ATOM     78  CG  ASN A   5      32.619  34.239  18.206  0.00  0.00    +0.222 C 
ATOM     79  ND2 ASN A   5      33.271  34.901  19.155  0.00  0.00    -0.329 N 
ATOM     80 HD21 ASN A   5      33.012  34.768  20.153  0.00  0.00    +0.145 HD
ATOM     81 HD22 ASN A   5      34.040  35.552  18.900  0.00  0.00    +0.145 HD
ATOM     82  OD1 ASN A   5      32.883  34.357  17.000  0.00  0.00    -0.275 OA
ENDBRANCH  77  78
ENDBRANCH  43  77
ENDBRANCH   1  43
TORSDOF 29
REMARK  Name = ../refined-set-2016/2qi5/2qi5_pocket.pdb
REMARK  215 active torsions:
REMARK  status: ('A' for Active; 'I' for Inactive)
REMARK    1  A    between atoms: _1  and  _3
REMARK    2  A    between atoms: _3  and  _4
REMARK    3  A    between atoms: _3  and  _6
REMARK    4  A    between atoms: _6  and  _7
REMARK    5  A    between atoms: _7  and  _8
REMARK    6  A    between atoms: _8  and  _9
REMARK    7  A    between atoms: _18  and  _20
REMARK    8  A    between atoms: _20  and  _21
REMARK    9  A    between atoms: _20  and  _23
REMARK   10  A    between atoms: _23  and  _24
REMARK   11  A    between atoms: _27  and  _29
REMARK   12  A    between atoms: _29  and  _30
REMARK   13  A    between atoms: _29  and  _32
REMARK   14  A    between atoms: _32  and  _33
REMARK   15  A    between atoms: _36  and  _38
REMARK   16  A    between atoms: _38  and  _39
REMARK   17  A    between atoms: _38  and  _41
REMARK   18  A    between atoms: _41  and  _42
REMARK   19  A    between atoms: _45  and  _47
REMARK   20  A    between atoms: _47  and  _48
REMARK   21  A    between atoms: _47  and  _50
REMARK   22  A    between atoms: _50  and  _51
REMARK   23  A    between atoms: _54  and  _56
REMARK   24  A    between atoms: _56  and  _57
REMARK   25  A    between atoms: _59  and  _61
REMARK   26  A    between atoms: _61  and  _62
REMARK   27  A    between atoms: _65  and  _67
REMARK   28  A    between atoms: _67  and  _68
REMARK   29  A    between atoms: _67  and  _70
REMARK   30  A    between atoms: _70  and  _71
REMARK   31  A    between atoms: _74  and  _76
REMARK   32  A    between atoms: _76  and  _77
REMARK   33  A    between atoms: _76  and  _79
REMARK   34  A    between atoms: _79  and  _80
REMARK   35  A    between atoms: _83  and  _85
REMARK   36  A    between atoms: _85  and  _86
REMARK   37  A    between atoms: _85  and  _88
REMARK   38  A    between atoms: _88  and  _89
REMARK   39  A    between atoms: _92  and  _94
REMARK   40  A    between atoms: _94  and  _95
REMARK   41  A    between atoms: _94  and  _97
REMARK   42  A    between atoms: _100  and  _102
REMARK   43  A    between atoms: _102  and  _103
REMARK   44  A    between atoms: _102  and  _105
REMARK   45  A    between atoms: _105  and  _106
REMARK   46  A    between atoms: _109  and  _111
REMARK   47  A    between atoms: _111  and  _112
REMARK   48  A    between atoms: _114  and  _116
REMARK   49  A    between atoms: _116  and  _117
REMARK   50  A    between atoms: _119  and  _121
REMARK   51  A    between atoms: _121  and  _122
REMARK   52  A    between atoms: _121  and  _124
REMARK   53  A    between atoms: _124  and  _125
REMARK   54  A    between atoms: _128  and  _130
REMARK   55  A    between atoms: _130  and  _131
REMARK   56  A    between atoms: _133  and  _135
REMARK   57  A    between atoms: _135  and  _136
REMARK   58  A    between atoms: _138  and  _140
REMARK   59  A    between atoms: _140  and  _141
REMARK   60  A    between atoms: _140  and  _143
REMARK   61  A    between atoms: _143  and  _144
REMARK   62  A    between atoms: _150  and  _152
REMARK   63  A    between atoms: _152  and  _153
REMARK   64  A    between atoms: _152  and  _155
REMARK   65  A    between atoms: _155  and  _156
REMARK   66  A    between atoms: _159  and  _161
REMARK   67  A    between atoms: _161  and  _162
REMARK   68  A    between atoms: _161  and  _164
REMARK   69  A    between atoms: _164  and  _165
REMARK   70  A    between atoms: _169  and  _170
REMARK   71  A    between atoms: _175  and  _177
REMARK   72  A    between atoms: _177  and  _178
REMARK   73  A    between atoms: _177  and  _180
REMARK   74  A    between atoms: _180  and  _181
REMARK   75  A    between atoms: _185  and  _186
REMARK   76  A    between atoms: _191  and  _193
REMARK   77  A    between atoms: _193  and  _194
REMARK   78  A    between atoms: _193  and  _196
REMARK   79  A    between atoms: _199  and  _201
REMARK   80  A    between atoms: _201  and  _202
REMARK   81  A    between atoms: _201  and  _204
REMARK   82  A    between atoms: _204  and  _205
REMARK   83  A    between atoms: _210  and  _212
REMARK   84  A    between atoms: _212  and  _213
REMARK   85  A    between atoms: _212  and  _215
REMARK   86  A    between atoms: _215  and  _216
REMARK   87  A    between atoms: _219  and  _221
REMARK   88  A    between atoms: _221  and  _222
REMARK   89  A    between atoms: _221  and  _224
REMARK   90  A    between atoms: _224  and  _225
REMARK   91  A    between atoms: _228  and  _230
REMARK   92  A    between atoms: _230  and  _231
REMARK   93  A    between atoms: _233  and  _235
REMARK   94  A    between atoms: _235  and  _236
REMARK   95  A    between atoms: _235  and  _238
REMARK   96  A    between atoms: _238  and  _239
REMARK   97  A    between atoms: _239  and  _240
REMARK   98  A    between atoms: _240  and  _241
REMARK   99  A    between atoms: _250  and  _252
REMARK  100  A    between atoms: _252  and  _253
REMARK  101  A    between atoms: _252  and  _255
REMARK  102  A    between atoms: _255  and  _256
REMARK  103  A    between atoms: _256  and  _257
REMARK  104  A    between atoms: _257  and  _258
REMARK  105  A    between atoms: _267  and  _269
REMARK  106  A    between atoms: _269  and  _270
REMARK  107  A    between atoms: _269  and  _272
REMARK  108  A    between atoms: _272  and  _273
REMARK  109  A    between atoms: _276  and  _278
REMARK  110  A    between atoms: _278  and  _279
REMARK  111  A    between atoms: _278  and  _281
REMARK  112  A    between atoms: _281  and  _282
REMARK  113  A    between atoms: _285  and  _287
REMARK  114  A    between atoms: _287  and  _288
REMARK  115  A    between atoms: _287  and  _290
REMARK  116  A    between atoms: _290  and  _291
REMARK  117  A    between atoms: _294  and  _296
REMARK  118  A    between atoms: _296  and  _297
REMARK  119  A    between atoms: _296  and  _299
REMARK  120  A    between atoms: _299  and  _300
REMARK  121  A    between atoms: _303  and  _305
REMARK  122  A    between atoms: _305  and  _306
REMARK  123  A    between atoms: _308  and  _310
REMARK  124  A    between atoms: _310  and  _311
REMARK  125  A    between atoms: _314  and  _316
REMARK  126  A    between atoms: _316  and  _317
REMARK  127  A    between atoms: _316  and  _319
REMARK  128  A    between atoms: _319  and  _320
REMARK  129  A    between atoms: _323  and  _325
REMARK  130  A    between atoms: _325  and  _326
REMARK  131  A    between atoms: _325  and  _328
REMARK  132  A    between atoms: _328  and  _329
REMARK  133  A    between atoms: _332  and  _334
REMARK  134  A    between atoms: _334  and  _335
REMARK  135  A    between atoms: _334  and  _337
REMARK  136  A    between atoms: _337  and  _338
REMARK  137  A    between atoms: _341  and  _343
REMARK  138  A    between atoms: _343  and  _344
REMARK  139  A    between atoms: _343  and  _346
REMARK  140  A    between atoms: _349  and  _351
REMARK  141  A    between atoms: _351  and  _352
REMARK  142  A    between atoms: _351  and  _354
REMARK  143  A    between atoms: _354  and  _355
REMARK  144  A    between atoms: _355  and  _356
REMARK  145  A    between atoms: _356  and  _357
REMARK  146  A    between atoms: _357  and  _358
REMARK  147  A    between atoms: _362  and  _364
REMARK  148  A    between atoms: _364  and  _365
REMARK  149  A    between atoms: _364  and  _367
REMARK  150  A    between atoms: _367  and  _368
REMARK  151  A    between atoms: _368  and  _369
REMARK  152  A    between atoms: _371  and  _373
REMARK  153  A    between atoms: _373  and  _374
REMARK  154  A    between atoms: _373  and  _376
REMARK  155  A    between atoms: _376  and  _377
REMARK  156  A    between atoms: _380  and  _382
REMARK  157  A    between atoms: _382  and  _383
REMARK  158  A    between atoms: _385  and  _387
REMARK  159  A    between atoms: _387  and  _388
REMARK  160  A    between atoms: _390  and  _392
REMARK  161  A    between atoms: _392  and  _393
REMARK  162  A    between atoms: _392  and  _395
REMARK  163  A    between atoms: _395  and  _396
REMARK  164  A    between atoms: _399  and  _401
REMARK  165  A    between atoms: _401  and  _402
REMARK  166  A    between atoms: _404  and  _406
REMARK  167  A    between atoms: _406  and  _407
REMARK  168  A    between atoms: _409  and  _411
REMARK  169  A    between atoms: _411  and  _412
REMARK  170  A    between atoms: _411  and  _414
REMARK  171  A    between atoms: _414  and  _415
REMARK  172  A    between atoms: _421  and  _423
REMARK  173  A    between atoms: _423  and  _424
REMARK  174  A    between atoms: _423  and  _426
REMARK  175  A    between atoms: _426  and  _427
REMARK  176  A    between atoms: _430  and  _432
REMARK  177  A    between atoms: _432  and  _433
REMARK  178  A    between atoms: _432  and  _435
REMARK  179  A    between atoms: _438  and  _440
REMARK  180  A    between atoms: _440  and  _441
REMARK  181  A    between atoms: _440  and  _443
REMARK  182  A    between atoms: _443  and  _444
REMARK  183  A    between atoms: _448  and  _449
REMARK  184  A    between atoms: _454  and  _456
REMARK  185  A    between atoms: _456  and  _457
REMARK  186  A    between atoms: _456  and  _459
REMARK  187  A    between atoms: _459  and  _460
REMARK  188  A    between atoms: _464  and  _465
REMARK  189  A    between atoms: _470  and  _472
REMARK  190  A    between atoms: _472  and  _473
REMARK  191  A    between atoms: _472  and  _475
REMARK  192  A    between atoms: _478  and  _480
REMARK  193  A    between atoms: _480  and  _481
REMARK  194  A    between atoms: _480  and  _483
REMARK  195  A    between atoms: _483  and  _484
REMARK  196  A    between atoms: _489  and  _491
REMARK  197  A    between atoms: _491  and  _492
REMARK  198  A    between atoms: _491  and  _494
REMARK  199  A    between atoms: _494  and  _495
REMARK  200  A    between atoms: _498  and  _500
REMARK  201  A    between atoms: _500  and  _501
REMARK  202  A    between atoms: _500  and  _503
REMARK  203  A    between atoms: _503  and  _504
REMARK  204  A    between atoms: _507  and  _509
REMARK  205  A    between atoms: _509  and  _510
REMARK  206  A    between atoms: _512  and  _514
REMARK  207  A    between atoms: _514  and  _515
REMARK  208  A    between atoms: _514  and  _517
REMARK  209  A    between atoms: _517  and  _518
REMARK  210  A    between atoms: _518  and  _519
REMARK  211  A    between atoms: _519  and  _520
REMARK  212  A    between atoms: _529  and  _531
REMARK  213  A    between atoms: _531  and  _532
REMARK  214  A    between atoms: _531  and  _534
REMARK  215  A    between atoms: _534  and  _535
REMARK                            x       y       z     vdW  Elec       q    Type
REMARK                         _______ _______ _______ _____ _____    ______ ____
ROOT
ATOM      1  NE  ARG A   1      18.896  20.613  11.187  0.00  0.00    -0.265 N 
ATOM      2  HE  ARG A   1      19.881  20.281  11.151  0.00  0.00    +0.259 HD
ATOM      3  CZ  ARG A   1      18.529  21.535  10.298  0.00  0.00    +0.342 C 
ATOM      4  NH2 ARG A   1      17.292  22.027  10.280  0.00  0.00    -0.292 N 
ATOM      5 HH21 ARG A   1      16.589  21.692  10.969  0.00  0.00    +0.255 HD
ATOM      6 HH22 ARG A   1      17.029  22.746   9.576  0.00  0.00    +0.255 HD
ATOM      7  NH1 ARG A   1      19.414  21.976   9.414  0.00  0.00    -0.292 N 
ATOM      8 HH11 ARG A   1      20.384  21.602   9.419  0.00  0.00    +0.255 HD
ATOM      9 HH12 ARG A   1      19.137  22.696   8.716  0.00  0.00    +0.255 HD
ENDROOT
BRANCH   1  10
ATOM     10  CD  ARG A   1      18.030  20.032  12.206  0.00  0.00    +0.174 C 
BRANCH  10  11
ATOM     11  CG  ARG A   1      18.837  19.317  13.271  0.00  0.00    +0.045 C 
BRANCH  11  12
ATOM     12  CB  ARG A   1      17.930  18.761  14.350  0.00  0.00    +0.029 C 
BRANCH  12  13
ATOM     13  CA  ARG A   1      18.669  18.149  15.537  0.00  0.00    +0.133 C 
BRANCH  13  14
ATOM     14  N   ARG A   1      19.413  16.955  15.133  0.00  0.00    -0.239 NA
ATOM     15  H   ARG A   1      19.415  16.666  14.134  0.00  0.00    +0.142 HD
ENDBRANCH  13  14
BRANCH  13  16
ATOM     16  C   ARG A   1      17.657  17.785  16.628  0.00  0.00    +0.224 C 
ATOM     17  O   ARG A   1      16.922  16.794  16.497  0.00  0.00    -0.287 OA
ENDBRANCH  13  16
ENDBRANCH  12  13
ENDBRANCH  11  12
ENDBRANCH  10  11
ENDBRANCH   1  10
TORSDOF 6
REMARK  Name = ../refined-set-2016/2qi5/2qi5_pocket.pdb
REMARK  215 active torsions:
REMARK  status: ('A' for Active; 'I' for Inactive)
REMARK    1  A    between atoms: _1  and  _3
REMARK    2  A    between atoms: _3  and  _4
REMARK    3  A    between atoms: _3  and  _6
REMARK    4  A    between atoms: _6  and  _7
REMARK    5  A    between atoms: _7  and  _8
REMARK    6  A    between atoms: _8  and  _9
REMARK    7  A    between atoms: _18  and  _20
REMARK    8  A    between atoms: _20  and  _21
REMARK    9  A    between atoms: _20  and  _23
REMARK   10  A    between atoms: _23  and  _24
REMARK   11  A    between atoms: _27  and  _29
REMARK   12  A    between atoms: _29  and  _30
REMARK   13  A    between atoms: _29  and  _32
REMARK   14  A    between atoms: _32  and  _33
REMARK   15  A    between atoms: _36  and  _38
REMARK   16  A    between atoms: _38  and  _39
REMARK   17  A    between atoms: _38  and  _41
REMARK   18  A    between atoms: _41  and  _42
REMARK   19  A    between atoms: _45  and  _47
REMARK   20  A    between atoms: _47  and  _48
REMARK   21  A    between atoms: _47  and  _50
REMARK   22  A    between atoms: _50  and  _51
REMARK   23  A    between atoms: _54  and  _56
REMARK   24  A    between atoms: _56  and  _57
REMARK   25  A    between atoms: _59  and  _61
REMARK   26  A    between atoms: _61  and  _62
REMARK   27  A    between atoms: _65  and  _67
REMARK   28  A    between atoms: _67  and  _68
REMARK   29  A    between atoms: _67  and  _70
REMARK   30  A    between atoms: _70  and  _71
REMARK   31  A    between atoms: _74  and  _76
REMARK   32  A    between atoms: _76  and  _77
REMARK   33  A    between atoms: _76  and  _79
REMARK   34  A    between atoms: _79  and  _80
REMARK   35  A    between atoms: _83  and  _85
REMARK   36  A    between atoms: _85  and  _86
REMARK   37  A    between atoms: _85  and  _88
REMARK   38  A    between atoms: _88  and  _89
REMARK   39  A    between atoms: _92  and  _94
REMARK   40  A    between atoms: _94  and  _95
REMARK   41  A    between atoms: _94  and  _97
REMARK   42  A    between atoms: _100  and  _102
REMARK   43  A    between atoms: _102  and  _103
REMARK   44  A    between atoms: _102  and  _105
REMARK   45  A    between atoms: _105  and  _106
REMARK   46  A    between atoms: _109  and  _111
REMARK   47  A    between atoms: _111  and  _112
REMARK   48  A    between atoms: _114  and  _116
REMARK   49  A    between atoms: _116  and  _117
REMARK   50  A    between atoms: _119  and  _121
REMARK   51  A    between atoms: _121  and  _122
REMARK   52  A    between atoms: _121  and  _124
REMARK   53  A    between atoms: _124  and  _125
REMARK   54  A    between atoms: _128  and  _130
REMARK   55  A    between atoms: _130  and  _131
REMARK   56  A    between atoms: _133  and  _135
REMARK   57  A    between atoms: _135  and  _136
REMARK   58  A    between atoms: _138  and  _140
REMARK   59  A    between atoms: _140  and  _141
REMARK   60  A    between atoms: _140  and  _143
REMARK   61  A    between atoms: _143  and  _144
REMARK   62  A    between atoms: _150  and  _152
REMARK   63  A    between atoms: _152  and  _153
REMARK   64  A    between atoms: _152  and  _155
REMARK   65  A    between atoms: _155  and  _156
REMARK   66  A    between atoms: _159  and  _161
REMARK   67  A    between atoms: _161  and  _162
REMARK   68  A    between atoms: _161  and  _164
REMARK   69  A    between atoms: _164  and  _165
REMARK   70  A    between atoms: _169  and  _170
REMARK   71  A    between atoms: _175  and  _177
REMARK   72  A    between atoms: _177  and  _178
REMARK   73  A    between atoms: _177  and  _180
REMARK   74  A    between atoms: _180  and  _181
REMARK   75  A    between atoms: _185  and  _186
REMARK   76  A    between atoms: _191  and  _193
REMARK   77  A    between atoms: _193  and  _194
REMARK   78  A    between atoms: _193  and  _196
REMARK   79  A    between atoms: _199  and  _201
REMARK   80  A    between atoms: _201  and  _202
REMARK   81  A    between atoms: _201  and  _204
REMARK   82  A    between atoms: _204  and  _205
REMARK   83  A    between atoms: _210  and  _212
REMARK   84  A    between atoms: _212  and  _213
REMARK   85  A    between atoms: _212  and  _215
REMARK   86  A    between atoms: _215  and  _216
REMARK   87  A    between atoms: _219  and  _221
REMARK   88  A    between atoms: _221  and  _222
REMARK   89  A    between atoms: _221  and  _224
REMARK   90  A    between atoms: _224  and  _225
REMARK   91  A    between atoms: _228  and  _230
REMARK   92  A    between atoms: _230  and  _231
REMARK   93  A    between atoms: _233  and  _235
REMARK   94  A    between atoms: _235  and  _236
REMARK   95  A    between atoms: _235  and  _238
REMARK   96  A    between atoms: _238  and  _239
REMARK   97  A    between atoms: _239  and  _240
REMARK   98  A    between atoms: _240  and  _241
REMARK   99  A    between atoms: _250  and  _252
REMARK  100  A    between atoms: _252  and  _253
REMARK  101  A    between atoms: _252  and  _255
REMARK  102  A    between atoms: _255  and  _256
REMARK  103  A    between atoms: _256  and  _257
REMARK  104  A    between atoms: _257  and  _258
REMARK  105  A    between atoms: _267  and  _269
REMARK  106  A    between atoms: _269  and  _270
REMARK  107  A    between atoms: _269  and  _272
REMARK  108  A    between atoms: _272  and  _273
REMARK  109  A    between atoms: _276  and  _278
REMARK  110  A    between atoms: _278  and  _279
REMARK  111  A    between atoms: _278  and  _281
REMARK  112  A    between atoms: _281  and  _282
REMARK  113  A    between atoms: _285  and  _287
REMARK  114  A    between atoms: _287  and  _288
REMARK  115  A    between atoms: _287  and  _290
REMARK  116  A    between atoms: _290  and  _291
REMARK  117  A    between atoms: _294  and  _296
REMARK  118  A    between atoms: _296  and  _297
REMARK  119  A    between atoms: _296  and  _299
REMARK  120  A    between atoms: _299  and  _300
REMARK  121  A    between atoms: _303  and  _305
REMARK  122  A    between atoms: _305  and  _306
REMARK  123  A    between atoms: _308  and  _310
REMARK  124  A    between atoms: _310  and  _311
REMARK  125  A    between atoms: _314  and  _316
REMARK  126  A    between atoms: _316  and  _317
REMARK  127  A    between atoms: _316  and  _319
REMARK  128  A    between atoms: _319  and  _320
REMARK  129  A    between atoms: _323  and  _325
REMARK  130  A    between atoms: _325  and  _326
REMARK  131  A    between atoms: _325  and  _328
REMARK  132  A    between atoms: _328  and  _329
REMARK  133  A    between atoms: _332  and  _334
REMARK  134  A    between atoms: _334  and  _335
REMARK  135  A    between atoms: _334  and  _337
REMARK  136  A    between atoms: _337  and  _338
REMARK  137  A    between atoms: _341  and  _343
REMARK  138  A    between atoms: _343  and  _344
REMARK  139  A    between atoms: _343  and  _346
REMARK  140  A    between atoms: _349  and  _351
REMARK  141  A    between atoms: _351  and  _352
REMARK  142  A    between atoms: _351  and  _354
REMARK  143  A    between atoms: _354  and  _355
REMARK  144  A    between atoms: _355  and  _356
REMARK  145  A    between atoms: _356  and  _357
REMARK  146  A    between atoms: _357  and  _358
REMARK  147  A    between atoms: _362  and  _364
REMARK  148  A    between atoms: _364  and  _365
REMARK  149  A    between atoms: _364  and  _367
REMARK  150  A    between atoms: _367  and  _368
REMARK  151  A    between atoms: _368  and  _369
REMARK  152  A    between atoms: _371  and  _373
REMARK  153  A    between atoms: _373  and  _374
REMARK  154  A    between atoms: _373  and  _376
REMARK  155  A    between atoms: _376  and  _377
REMARK  156  A    between atoms: _380  and  _382
REMARK  157  A    between atoms: _382  and  _383
REMARK  158  A    between atoms: _385  and  _387
REMARK  159  A    between atoms: _387  and  _388
REMARK  160  A    between atoms: _390  and  _392
REMARK  161  A    between atoms: _392  and  _393
REMARK  162  A    between atoms: _392  and  _395
REMARK  163  A    between atoms: _395  and  _396
REMARK  164  A    between atoms: _399  and  _401
REMARK  165  A    between atoms: _401  and  _402
REMARK  166  A    between atoms: _404  and  _406
REMARK  167  A    between atoms: _406  and  _407
REMARK  168  A    between atoms: _409  and  _411
REMARK  169  A    between atoms: _411  and  _412
REMARK  170  A    between atoms: _411  and  _414
REMARK  171  A    between atoms: _414  and  _415
REMARK  172  A    between atoms: _421  and  _423
REMARK  173  A    between atoms: _423  and  _424
REMARK  174  A    between atoms: _423  and  _426
REMARK  175  A    between atoms: _426  and  _427
REMARK  176  A    between atoms: _430  and  _432
REMARK  177  A    between atoms: _432  and  _433
REMARK  178  A    between atoms: _432  and  _435
REMARK  179  A    between atoms: _438  and  _440
REMARK  180  A    between atoms: _440  and  _441
REMARK  181  A    between atoms: _440  and  _443
REMARK  182  A    between atoms: _443  and  _444
REMARK  183  A    between atoms: _448  and  _449
REMARK  184  A    between atoms: _454  and  _456
REMARK  185  A    between atoms: _456  and  _457
REMARK  186  A    between atoms: _456  and  _459
REMARK  187  A    between atoms: _459  and  _460
REMARK  188  A    between atoms: _464  and  _465
REMARK  189  A    between atoms: _470  and  _472
REMARK  190  A    between atoms: _472  and  _473
REMARK  191  A    between atoms: _472  and  _475
REMARK  192  A    between atoms: _478  and  _480
REMARK  193  A    between atoms: _480  and  _481
REMARK  194  A    between atoms: _480  and  _483
REMARK  195  A    between atoms: _483  and  _484
REMARK  196  A    between atoms: _489  and  _491
REMARK  197  A    between atoms: _491  and  _492
REMARK  198  A    between atoms: _491  and  _494
REMARK  199  A    between atoms: _494  and  _495
REMARK  200  A    between atoms: _498  and  _500
REMARK  201  A    between atoms: _500  and  _501
REMARK  202  A    between atoms: _500  and  _503
REMARK  203  A    between atoms: _503  and  _504
REMARK  204  A    between atoms: _507  and  _509
REMARK  205  A    between atoms: _509  and  _510
REMARK  206  A    between atoms: _512  and  _514
REMARK  207  A    between atoms: _514  and  _515
REMARK  208  A    between atoms: _514  and  _517
REMARK  209  A    between atoms: _517  and  _518
REMARK  210  A    between atoms: _518  and  _519
REMARK  211  A    between atoms: _519  and  _520
REMARK  212  A    between atoms: _529  and  _531
REMARK  213  A    between atoms: _531  and  _532
REMARK  214  A    between atoms: _531  and  _534
REMARK  215  A    between atoms: _534  and  _535
REMARK                            x       y       z     vdW  Elec       q    Type
REMARK                         _______ _______ _______ _____ _____    ______ ____
ROOT
ATOM      1  C   GLY A   5      19.703  31.046  20.092  0.00  0.00    +0.243 C 
ATOM      2  N   ALA A   6      18.434  30.738  20.344  0.00  0.00    -0.297 N 
ATOM      3  H   ALA A   6      18.232  29.842  20.832  0.00  0.00    +0.150 HD
ATOM      4  O   GLY A   5      20.046  32.104  19.553  0.00  0.00    -0.273 OA
ENDROOT
BRANCH   2   5
ATOM      5  CA  ALA A   6      17.314  31.589  19.973  0.00  0.00    +0.149 C 
ATOM      6  CB  ALA A   6      16.222  30.769  19.355  0.00  0.00    +0.031 C 
BRANCH   5   7
ATOM      7  C   ALA A   6      16.754  32.331  21.178  0.00  0.00    +0.241 C 
ATOM      8  O   ALA A   6      16.263  31.709  22.136  0.00  0.00    -0.273 OA
ATOM      9  N   ASP A   7      16.780  33.659  21.097  0.00  0.00    -0.297 N 
ATOM     10  H   ASP A   7      17.207  34.115  20.265  0.00  0.00    +0.150 HD
BRANCH   9  11
ATOM     11  CA  ASP A   7      16.213  34.490  22.169  0.00  0.00    +0.160 C 
BRANCH  11  12
ATOM     12  C   ASP A   7      14.710  34.292  22.268  0.00  0.00    +0.241 C 
ATOM     13  O   ASP A   7      14.144  34.119  23.358  0.00  0.00    -0.273 OA
ATOM     14  N   ASP A   8      14.094  34.323  21.091  0.00  0.00    -0.297 N 
ATOM     15  H   ASP A   8      14.682  34.390  20.235  0.00  0.00    +0.150 HD
BRANCH  14  16
ATOM     16  CA  ASP A   8      12.657  34.270  20.924  0.00  0.00    +0.160 C 
BRANCH  16  17
ATOM     17  C   ASP A   8      12.246  32.990  20.204  0.00  0.00    +0.241 C 
ATOM     18  N   THR A   9      10.941  32.747  20.226  0.00  0.00    -0.295 N 
ATOM     19  H   THR A   9      10.331  33.408  20.749  0.00  0.00    +0.150 HD
ATOM     20  O   ASP A   8      13.080  32.260  19.645  0.00  0.00    -0.273 OA
BRANCH  18  21
ATOM     21  CA  THR A   9      10.310  31.615  19.565  0.00  0.00    +0.176 C 
BRANCH  21  22
ATOM     22  C   THR A   9       9.753  32.061  18.211  0.00  0.00    +0.243 C 
ATOM     23  O   THR A   9       9.016  33.051  18.120  0.00  0.00    -0.273 OA
ATOM     24  N   VAL A  10      10.126  31.333  17.162  0.00  0.00    -0.298 N 
ATOM     25  H   VAL A  10      10.661  30.457  17.326  0.00  0.00    +0.150 HD
BRANCH  24  26
ATOM     26  CA  VAL A  10       9.812  31.718  15.785  0.00  0.00    +0.137 C 
BRANCH  26  27
ATOM     27  CB  VAL A  10      11.041  32.205  14.973  0.00  0.00    +0.026 C 
ATOM     28  CG2 VAL A  10      11.935  33.154  15.785  0.00  0.00    +0.002 C 
ATOM     29  CG1 VAL A  10      10.577  32.896  13.686  0.00  0.00    +0.002 C 
ENDBRANCH  26  27
BRANCH  26  30
ATOM     30  C   VAL A  10       9.183  30.521  15.089  0.00  0.00    +0.227 C 
ATOM     31  O   VAL A  10       9.814  29.465  14.931  0.00  0.00    -0.286 OA
ENDBRANCH  26  30
ENDBRANCH  24  26
ENDBRANCH  21  22
BRANCH  21  32
ATOM     32  CB  THR A   9       9.222  31.021  20.499  0.00  0.00    +0.137 C 
ATOM     33  CG2 THR A   9       8.365  29.990  19.794  0.00  0.00    +0.034 C 
BRANCH  32  34
ATOM     34  OG1 THR A   9       9.870  30.426  21.631  0.00  0.00    -0.382 OA
ATOM     35  HG1 THR A   9      10.390  31.117  22.113  0.00  0.00    +0.210 HD
ENDBRANCH  32  34
ENDBRANCH  21  32
ENDBRANCH  18  21
ENDBRANCH  16  17
BRANCH  16  36
ATOM     36  CB  ASP A   8      12.195  35.479  20.118  0.00  0.00    +0.143 C 
BRANCH  36  37
ATOM     37  CG  ASP A   8      12.648  36.799  20.717  0.00  0.00    +0.367 C 
ATOM     38  OD2 ASP A   8      12.650  36.937  21.956  0.00  0.00    -0.246 OA
ATOM     39  OD1 ASP A   8      12.997  37.718  19.946  0.00  0.00    -0.246 OA
ENDBRANCH  36  37
ENDBRANCH  16  36
ENDBRANCH  14  16
ENDBRANCH  11  12
BRANCH  11  40
ATOM     40  CB  ASP A   7      16.467  35.967  21.894  0.00  0.00    +0.143 C 
BRANCH  40  41
ATOM     41  CG  ASP A   7      17.928  36.347  21.968  0.00  0.00    +0.367 C 
ATOM     42  OD2 ASP A   7      18.765  35.588  22.507  0.00  0.00    -0.246 OA
ATOM     43  OD1 ASP A   7      18.228  37.452  21.485  0.00  0.00    -0.246 OA
ENDBRANCH  40  41
ENDBRANCH  11  40
ENDBRANCH   9  11
ENDBRANCH   5   7
ENDBRANCH   2   5
BRANCH   1  44
ATOM     44  CA  GLY A   5      20.751  30.015  20.496  0.00  0.00    +0.176 C 
BRANCH  44  47
ATOM     45  C   THR A   4      19.944  28.816  22.466  0.00  0.00    +0.243 C 
ATOM     46  O   THR A   4      20.185  29.778  23.197  0.00  0.00    -0.273 OA
ATOM     47  N   GLY A   5      20.211  28.826  21.163  0.00  0.00    -0.295 N 
ATOM     48  H   GLY A   5      20.032  27.968  20.603  0.00  0.00    +0.150 HD
BRANCH  45  49
ATOM     49  CA  THR A   4      19.321  27.545  23.052  0.00  0.00    +0.176 C 
BRANCH  49  51
ATOM     50  C   ASP A   3      17.616  27.076  21.369  0.00  0.00    +0.241 C 
ATOM     51  N   THR A   4      18.688  26.678  22.057  0.00  0.00    -0.295 N 
ATOM     52  H   THR A   4      19.082  25.732  21.882  0.00  0.00    +0.150 HD
ATOM     53  O   ASP A   3      17.063  28.163  21.553  0.00  0.00    -0.273 OA
BRANCH  50  54
ATOM     54  CA  ASP A   3      17.093  26.106  20.312  0.00  0.00    +0.160 C 
BRANCH  54  56
ATOM     55  C   LEU A   2      16.058  23.951  20.784  0.00  0.00    +0.241 C 
ATOM     56  N   ASP A   3      16.000  25.284  20.820  0.00  0.00    -0.297 N 
ATOM     57  H   ASP A   3      15.158  25.746  21.219  0.00  0.00    +0.150 HD
ATOM     58  O   LEU A   2      17.101  23.319  20.601  0.00  0.00    -0.273 OA
BRANCH  55  59
ATOM     59  CA  LEU A   2      14.739  23.206  20.938  0.00  0.00    +0.149 C 
BRANCH  59  61
ATOM     60  C   LEU A   1      13.877  23.366  18.671  0.00  0.00    +0.238 C 
ATOM     61  N   LEU A   2      14.430  22.627  19.631  0.00  0.00    -0.297 N 
ATOM     62  H   LEU A   2      14.645  21.626  19.449  0.00  0.00    +0.150 HD
ATOM     63  O   LEU A   1      13.502  24.527  18.856  0.00  0.00    -0.274 OA
BRANCH  60  64
ATOM     64  CA  LEU A   1      13.697  22.713  17.307  0.00  0.00    +0.145 C 
BRANCH  64  65
ATOM     65  N   LEU A   1      12.312  22.856  16.902  0.00  0.00    -0.238 NA
ATOM     66  H   LEU A   1      12.046  23.725  16.396  0.00  0.00    +0.142 HD
ENDBRANCH  64  65
BRANCH  64  67
ATOM     67  CB  LEU A   1      14.554  23.435  16.260  0.00  0.00    +0.026 C 
BRANCH  67  68
ATOM     68  CG  LEU A   1      16.063  23.252  16.168  0.00  0.00    +0.002 C 
ATOM     69  CD2 LEU A   1      16.423  21.822  15.841  0.00  0.00    +0.000 C 
ATOM     70  CD1 LEU A   1      16.585  24.214  15.085  0.00  0.00    +0.000 C 
ENDBRANCH  67  68
ENDBRANCH  64  67
ENDBRANCH  60  64
ENDBRANCH  59  61
BRANCH  59  71
ATOM     71  CB  LEU A   2      14.827  22.133  22.024  0.00  0.00    +0.029 C 
BRANCH  71  72
ATOM     72  CG  LEU A   2      13.561  21.311  22.294  0.00  0.00    +0.002 C 
ATOM     73  CD2 LEU A   2      13.845  20.234  23.323  0.00  0.00    +0.000 C 
ATOM     74  CD1 LEU A   2      12.391  22.186  22.742  0.00  0.00    +0.000 C 
ENDBRANCH  71  72
ENDBRANCH  59  71
ENDBRANCH  55  59
ENDBRANCH  54  56
BRANCH  54  75
ATOM     75  CB  ASP A   3      16.638  26.868  19.059  0.00  0.00    +0.143 C 
BRANCH  75  76
ATOM     76  CG  ASP A   3      17.799  27.518  18.324  0.00  0.00    +0.367 C 
ATOM     77  OD2 ASP A   3      18.915  27.546  18.891  0.00  0.00    -0.246 OA
ATOM     78  OD1 ASP A   3      17.604  27.946  17.171  0.00  0.00    -0.246 OA
ENDBRANCH  75  76
ENDBRANCH  54  75
ENDBRANCH  50  54
ENDBRANCH  49  51
BRANCH  49  79
ATOM     79  CB  THR A   4      20.413  26.799  23.838  0.00  0.00    +0.137 C 
ATOM     80  CG2 THR A   4      19.794  25.665  24.642  0.00  0.00    +0.034 C 
BRANCH  79  81
ATOM     81  OG1 THR A   4      21.405  26.276  22.938  0.00  0.00    -0.382 OA
ATOM     82  HG1 THR A   4      21.819  27.022  22.436  0.00  0.00    +0.210 HD
ENDBRANCH  79  81
ENDBRANCH  49  79
ENDBRANCH  45  49
ENDBRANCH  44  47
ENDBRANCH   1  44
TORSDOF 35
REMARK  Name = ../refined-set-2016/2qi5/2qi5_pocket.pdb
REMARK  215 active torsions:
REMARK  status: ('A' for Active; 'I' for Inactive)
REMARK    1  A    between atoms: _1  and  _3
REMARK    2  A    between atoms: _3  and  _4
REMARK    3  A    between atoms: _3  and  _6
REMARK    4  A    between atoms: _6  and  _7
REMARK    5  A    between atoms: _7  and  _8
REMARK    6  A    between atoms: _8  and  _9
REMARK    7  A    between atoms: _18  and  _20
REMARK    8  A    between atoms: _20  and  _21
REMARK    9  A    between atoms: _20  and  _23
REMARK   10  A    between atoms: _23  and  _24
REMARK   11  A    between atoms: _27  and  _29
REMARK   12  A    between atoms: _29  and  _30
REMARK   13  A    between atoms: _29  and  _32
REMARK   14  A    between atoms: _32  and  _33
REMARK   15  A    between atoms: _36  and  _38
REMARK   16  A    between atoms: _38  and  _39
REMARK   17  A    between atoms: _38  and  _41
REMARK   18  A    between atoms: _41  and  _42
REMARK   19  A    between atoms: _45  and  _47
REMARK   20  A    between atoms: _47  and  _48
REMARK   21  A    between atoms: _47  and  _50
REMARK   22  A    between atoms: _50  and  _51
REMARK   23  A    between atoms: _54  and  _56
REMARK   24  A    between atoms: _56  and  _57
REMARK   25  A    between atoms: _59  and  _61
REMARK   26  A    between atoms: _61  and  _62
REMARK   27  A    between atoms: _65  and  _67
REMARK   28  A    between atoms: _67  and  _68
REMARK   29  A    between atoms: _67  and  _70
REMARK   30  A    between atoms: _70  and  _71
REMARK   31  A    between atoms: _74  and  _76
REMARK   32  A    between atoms: _76  and  _77
REMARK   33  A    between atoms: _76  and  _79
REMARK   34  A    between atoms: _79  and  _80
REMARK   35  A    between atoms: _83  and  _85
REMARK   36  A    between atoms: _85  and  _86
REMARK   37  A    between atoms: _85  and  _88
REMARK   38  A    between atoms: _88  and  _89
REMARK   39  A    between atoms: _92  and  _94
REMARK   40  A    between atoms: _94  and  _95
REMARK   41  A    between atoms: _94  and  _97
REMARK   42  A    between atoms: _100  and  _102
REMARK   43  A    between atoms: _102  and  _103
REMARK   44  A    between atoms: _102  and  _105
REMARK   45  A    between atoms: _105  and  _106
REMARK   46  A    between atoms: _109  and  _111
REMARK   47  A    between atoms: _111  and  _112
REMARK   48  A    between atoms: _114  and  _116
REMARK   49  A    between atoms: _116  and  _117
REMARK   50  A    between atoms: _119  and  _121
REMARK   51  A    between atoms: _121  and  _122
REMARK   52  A    between atoms: _121  and  _124
REMARK   53  A    between atoms: _124  and  _125
REMARK   54  A    between atoms: _128  and  _130
REMARK   55  A    between atoms: _130  and  _131
REMARK   56  A    between atoms: _133  and  _135
REMARK   57  A    between atoms: _135  and  _136
REMARK   58  A    between atoms: _138  and  _140
REMARK   59  A    between atoms: _140  and  _141
REMARK   60  A    between atoms: _140  and  _143
REMARK   61  A    between atoms: _143  and  _144
REMARK   62  A    between atoms: _150  and  _152
REMARK   63  A    between atoms: _152  and  _153
REMARK   64  A    between atoms: _152  and  _155
REMARK   65  A    between atoms: _155  and  _156
REMARK   66  A    between atoms: _159  and  _161
REMARK   67  A    between atoms: _161  and  _162
REMARK   68  A    between atoms: _161  and  _164
REMARK   69  A    between atoms: _164  and  _165
REMARK   70  A    between atoms: _169  and  _170
REMARK   71  A    between atoms: _175  and  _177
REMARK   72  A    between atoms: _177  and  _178
REMARK   73  A    between atoms: _177  and  _180
REMARK   74  A    between atoms: _180  and  _181
REMARK   75  A    between atoms: _185  and  _186
REMARK   76  A    between atoms: _191  and  _193
REMARK   77  A    between atoms: _193  and  _194
REMARK   78  A    between atoms: _193  and  _196
REMARK   79  A    between atoms: _199  and  _201
REMARK   80  A    between atoms: _201  and  _202
REMARK   81  A    between atoms: _201  and  _204
REMARK   82  A    between atoms: _204  and  _205
REMARK   83  A    between atoms: _210  and  _212
REMARK   84  A    between atoms: _212  and  _213
REMARK   85  A    between atoms: _212  and  _215
REMARK   86  A    between atoms: _215  and  _216
REMARK   87  A    between atoms: _219  and  _221
REMARK   88  A    between atoms: _221  and  _222
REMARK   89  A    between atoms: _221  and  _224
REMARK   90  A    between atoms: _224  and  _225
REMARK   91  A    between atoms: _228  and  _230
REMARK   92  A    between atoms: _230  and  _231
REMARK   93  A    between atoms: _233  and  _235
REMARK   94  A    between atoms: _235  and  _236
REMARK   95  A    between atoms: _235  and  _238
REMARK   96  A    between atoms: _238  and  _239
REMARK   97  A    between atoms: _239  and  _240
REMARK   98  A    between atoms: _240  and  _241
REMARK   99  A    between atoms: _250  and  _252
REMARK  100  A    between atoms: _252  and  _253
REMARK  101  A    between atoms: _252  and  _255
REMARK  102  A    between atoms: _255  and  _256
REMARK  103  A    between atoms: _256  and  _257
REMARK  104  A    between atoms: _257  and  _258
REMARK  105  A    between atoms: _267  and  _269
REMARK  106  A    between atoms: _269  and  _270
REMARK  107  A    between atoms: _269  and  _272
REMARK  108  A    between atoms: _272  and  _273
REMARK  109  A    between atoms: _276  and  _278
REMARK  110  A    between atoms: _278  and  _279
REMARK  111  A    between atoms: _278  and  _281
REMARK  112  A    between atoms: _281  and  _282
REMARK  113  A    between atoms: _285  and  _287
REMARK  114  A    between atoms: _287  and  _288
REMARK  115  A    between atoms: _287  and  _290
REMARK  116  A    between atoms: _290  and  _291
REMARK  117  A    between atoms: _294  and  _296
REMARK  118  A    between atoms: _296  and  _297
REMARK  119  A    between atoms: _296  and  _299
REMARK  120  A    between atoms: _299  and  _300
REMARK  121  A    between atoms: _303  and  _305
REMARK  122  A    between atoms: _305  and  _306
REMARK  123  A    between atoms: _308  and  _310
REMARK  124  A    between atoms: _310  and  _311
REMARK  125  A    between atoms: _314  and  _316
REMARK  126  A    between atoms: _316  and  _317
REMARK  127  A    between atoms: _316  and  _319
REMARK  128  A    between atoms: _319  and  _320
REMARK  129  A    between atoms: _323  and  _325
REMARK  130  A    between atoms: _325  and  _326
REMARK  131  A    between atoms: _325  and  _328
REMARK  132  A    between atoms: _328  and  _329
REMARK  133  A    between atoms: _332  and  _334
REMARK  134  A    between atoms: _334  and  _335
REMARK  135  A    between atoms: _334  and  _337
REMARK  136  A    between atoms: _337  and  _338
REMARK  137  A    between atoms: _341  and  _343
REMARK  138  A    between atoms: _343  and  _344
REMARK  139  A    between atoms: _343  and  _346
REMARK  140  A    between atoms: _349  and  _351
REMARK  141  A    between atoms: _351  and  _352
REMARK  142  A    between atoms: _351  and  _354
REMARK  143  A    between atoms: _354  and  _355
REMARK  144  A    between atoms: _355  and  _356
REMARK  145  A    between atoms: _356  and  _357
REMARK  146  A    between atoms: _357  and  _358
REMARK  147  A    between atoms: _362  and  _364
REMARK  148  A    between atoms: _364  and  _365
REMARK  149  A    between atoms: _364  and  _367
REMARK  150  A    between atoms: _367  and  _368
REMARK  151  A    between atoms: _368  and  _369
REMARK  152  A    between atoms: _371  and  _373
REMARK  153  A    between atoms: _373  and  _374
REMARK  154  A    between atoms: _373  and  _376
REMARK  155  A    between atoms: _376  and  _377
REMARK  156  A    between atoms: _380  and  _382
REMARK  157  A    between atoms: _382  and  _383
REMARK  158  A    between atoms: _385  and  _387
REMARK  159  A    between atoms: _387  and  _388
REMARK  160  A    between atoms: _390  and  _392
REMARK  161  A    between atoms: _392  and  _393
REMARK  162  A    between atoms: _392  and  _395
REMARK  163  A    between atoms: _395  and  _396
REMARK  164  A    between atoms: _399  and  _401
REMARK  165  A    between atoms: _401  and  _402
REMARK  166  A    between atoms: _404  and  _406
REMARK  167  A    between atoms: _406  and  _407
REMARK  168  A    between atoms: _409  and  _411
REMARK  169  A    between atoms: _411  and  _412
REMARK  170  A    between atoms: _411  and  _414
REMARK  171  A    between atoms: _414  and  _415
REMARK  172  A    between atoms: _421  and  _423
REMARK  173  A    between atoms: _423  and  _424
REMARK  174  A    between atoms: _423  and  _426
REMARK  175  A    between atoms: _426  and  _427
REMARK  176  A    between atoms: _430  and  _432
REMARK  177  A    between atoms: _432  and  _433
REMARK  178  A    between atoms: _432  and  _435
REMARK  179  A    between atoms: _438  and  _440
REMARK  180  A    between atoms: _440  and  _441
REMARK  181  A    between atoms: _440  and  _443
REMARK  182  A    between atoms: _443  and  _444
REMARK  183  A    between atoms: _448  and  _449
REMARK  184  A    between atoms: _454  and  _456
REMARK  185  A    between atoms: _456  and  _457
REMARK  186  A    between atoms: _456  and  _459
REMARK  187  A    between atoms: _459  and  _460
REMARK  188  A    between atoms: _464  and  _465
REMARK  189  A    between atoms: _470  and  _472
REMARK  190  A    between atoms: _472  and  _473
REMARK  191  A    between atoms: _472  and  _475
REMARK  192  A    between atoms: _478  and  _480
REMARK  193  A    between atoms: _480  and  _481
REMARK  194  A    between atoms: _480  and  _483
REMARK  195  A    between atoms: _483  and  _484
REMARK  196  A    between atoms: _489  and  _491
REMARK  197  A    between atoms: _491  and  _492
REMARK  198  A    between atoms: _491  and  _494
REMARK  199  A    between atoms: _494  and  _495
REMARK  200  A    between atoms: _498  and  _500
REMARK  201  A    between atoms: _500  and  _501
REMARK  202  A    between atoms: _500  and  _503
REMARK  203  A    between atoms: _503  and  _504
REMARK  204  A    between atoms: _507  and  _509
REMARK  205  A    between atoms: _509  and  _510
REMARK  206  A    between atoms: _512  and  _514
REMARK  207  A    between atoms: _514  and  _515
REMARK  208  A    between atoms: _514  and  _517
REMARK  209  A    between atoms: _517  and  _518
REMARK  210  A    between atoms: _518  and  _519
REMARK  211  A    between atoms: _519  and  _520
REMARK  212  A    between atoms: _529  and  _531
REMARK  213  A    between atoms: _531  and  _532
REMARK  214  A    between atoms: _531  and  _534
REMARK  215  A    between atoms: _534  and  _535
REMARK                            x       y       z     vdW  Elec       q    Type
REMARK                         _______ _______ _______ _____ _____    ______ ____
ROOT
ATOM      1  C   GLY A   5      21.064  35.563  11.171  0.00  0.00    +0.243 C 
ATOM      2  N   ILE A   6      21.575  34.370  10.928  0.00  0.00    -0.297 N 
ATOM      3  H   ILE A   6      21.030  33.510  11.142  0.00  0.00    +0.150 HD
ATOM      4  O   GLY A   5      21.556  36.602  10.723  0.00  0.00    -0.273 OA
ENDROOT
BRANCH   2   5
ATOM      5  CA  ILE A   6      22.904  34.273  10.360  0.00  0.00    +0.149 C 
BRANCH   5   6
ATOM      6  C   ILE A   6      23.054  35.097   9.066  0.00  0.00    +0.241 C 
ATOM      7  O   ILE A   6      24.048  35.823   8.917  0.00  0.00    -0.273 OA
ATOM      8  N   GLY A   7      22.051  35.057   8.185  0.00  0.00    -0.295 N 
ATOM      9  H   GLY A   7      21.176  34.556   8.441  0.00  0.00    +0.150 HD
BRANCH   8  10
ATOM     10  CA  GLY A   7      22.144  35.700   6.862  0.00  0.00    +0.176 C 
BRANCH  10  11
ATOM     11  C   GLY A   7      21.488  37.065   6.701  0.00  0.00    +0.243 C 
ATOM     12  N   GLY A   8      20.897  37.578   7.772  0.00  0.00    -0.295 N 
ATOM     13  H   GLY A   8      20.913  37.038   8.661  0.00  0.00    +0.150 HD
ATOM     14  O   GLY A   7      21.510  37.653   5.612  0.00  0.00    -0.273 OA
BRANCH  12  15
ATOM     15  CA  GLY A   8      20.225  38.873   7.748  0.00  0.00    +0.176 C 
BRANCH  15  16
ATOM     16  C   GLY A   8      18.948  38.846   8.553  0.00  0.00    +0.243 C 
ATOM     17  O   GLY A   8      18.764  37.973   9.404  0.00  0.00    -0.273 OA
ATOM     18  N   PHE A   9      18.034  39.765   8.257  0.00  0.00    -0.297 N 
ATOM     19  H   PHE A   9      18.194  40.412   7.459  0.00  0.00    +0.150 HD
BRANCH  18  20
ATOM     20  CA  PHE A   9      16.812  39.874   9.038  0.00  0.00    +0.153 C 
BRANCH  20  21
ATOM     21  C   PHE A   9      15.614  39.329   8.264  0.00  0.00    +0.241 C 
ATOM     22  N   ILE A  10      14.632  38.823   9.003  0.00  0.00    -0.298 N 
ATOM     23  H   ILE A  10      14.816  38.584   9.998  0.00  0.00    +0.150 HD
ATOM     24  O   PHE A   9      15.576  39.376   7.025  0.00  0.00    -0.273 OA
BRANCH  22  25
ATOM     25  CA  ILE A  10      13.301  38.595   8.448  0.00  0.00    +0.137 C 
BRANCH  25  26
ATOM     26  C   ILE A  10      12.213  39.365   9.198  0.00  0.00    +0.227 C 
ATOM     27  O   ILE A  10      12.367  39.723  10.370  0.00  0.00    -0.286 OA
ENDBRANCH  25  26
BRANCH  25  28
ATOM     28  CB  ILE A  10      12.924  37.110   8.370  0.00  0.00    +0.026 C 
ATOM     29  CG2 ILE A  10      13.881  36.385   7.435  0.00  0.00    +0.002 C 
BRANCH  28  30
ATOM     30  CG1 ILE A  10      12.899  36.460   9.753  0.00  0.00    +0.002 C 
ATOM     31  CD1 ILE A  10      12.169  35.124   9.771  0.00  0.00    +0.000 C 
ENDBRANCH  28  30
ENDBRANCH  25  28
ENDBRANCH  22  25
ENDBRANCH  20  21
BRANCH  20  32
ATOM     32  CB  PHE A   9      16.562  41.333   9.456  0.00  0.00    +0.055 C 
BRANCH  32  33
ATOM     33  CG  PHE A   9      17.436  41.797  10.595  0.00  0.00    -0.020 A 
ATOM     34  CD2 PHE A   9      16.920  41.966  11.865  0.00  0.00    -0.004 A 
ATOM     35  CE2 PHE A   9      17.731  42.390  12.908  0.00  0.00    -0.000 A 
ATOM     36  CZ  PHE A   9      19.070  42.647  12.690  0.00  0.00    -0.000 A 
ATOM     37  CE1 PHE A   9      19.601  42.474  11.434  0.00  0.00    -0.000 A 
ATOM     38  CD1 PHE A   9      18.786  42.052  10.393  0.00  0.00    -0.004 A 
ENDBRANCH  32  33
ENDBRANCH  20  32
ENDBRANCH  18  20
ENDBRANCH  15  16
ENDBRANCH  12  15
ENDBRANCH  10  11
ENDBRANCH   8  10
ENDBRANCH   5   6
BRANCH   5  39
ATOM     39  CB  ILE A   6      23.367  32.796  10.256  0.00  0.00    +0.027 C 
ATOM     40  CG2 ILE A   6      22.921  32.172   8.947  0.00  0.00    +0.002 C 
BRANCH  39  41
ATOM     41  CG1 ILE A   6      24.877  32.725  10.524  0.00  0.00    +0.002 C 
ATOM     42  CD1 ILE A   6      25.479  31.358  10.435  0.00  0.00    +0.000 C 
ENDBRANCH  39  41
ENDBRANCH   5  39
ENDBRANCH   2   5
BRANCH   1  43
ATOM     43  CA  GLY A   5      19.782  35.565  11.964  0.00  0.00    +0.176 C 
BRANCH  43  46
ATOM     44  C   GLY A   4      18.735  37.475  13.024  0.00  0.00    +0.243 C 
ATOM     45  O   GLY A   4      18.789  36.980  14.153  0.00  0.00    -0.273 OA
ATOM     46  N   GLY A   5      19.163  36.869  11.926  0.00  0.00    -0.295 N 
ATOM     47  H   GLY A   5      19.050  37.347  11.009  0.00  0.00    +0.150 HD
BRANCH  44  48
ATOM     48  CA  GLY A   4      18.178  38.863  12.793  0.00  0.00    +0.176 C 
BRANCH  48  50
ATOM     49  C   ILE A   3      15.758  39.054  12.924  0.00  0.00    +0.241 C 
ATOM     50  N   GLY A   4      16.945  39.078  13.514  0.00  0.00    -0.295 N 
ATOM     51  H   GLY A   4      16.990  39.259  14.537  0.00  0.00    +0.150 HD
ATOM     52  O   ILE A   3      15.574  38.771  11.736  0.00  0.00    -0.273 OA
BRANCH  49  53
ATOM     53  CA  ILE A   3      14.598  39.446  13.824  0.00  0.00    +0.149 C 
BRANCH  53  56
ATOM     54  C   MET A   2      13.276  41.456  13.483  0.00  0.00    +0.241 C 
ATOM     55  O   MET A   2      13.670  41.968  14.530  0.00  0.00    -0.273 OA
ATOM     56  N   ILE A   3      13.659  40.251  13.071  0.00  0.00    -0.297 N 
ATOM     57  H   ILE A   3      13.273  39.876  12.181  0.00  0.00    +0.150 HD
BRANCH  54  58
ATOM     58  CA  MET A   2      12.325  42.228  12.582  0.00  0.00    +0.149 C 
BRANCH  58  60
ATOM     59  C   LYS A   1       9.961  42.446  13.197  0.00  0.00    +0.238 C 
ATOM     60  N   MET A   2      11.239  42.764  13.397  0.00  0.00    -0.297 N 
ATOM     61  H   MET A   2      11.473  43.423  14.167  0.00  0.00    +0.150 HD
ATOM     62  O   LYS A   1       9.566  41.814  12.214  0.00  0.00    -0.274 OA
BRANCH  59  63
ATOM     63  CA  LYS A   1       8.975  42.958  14.232  0.00  0.00    +0.145 C 
BRANCH  63  64
ATOM     64  N   LYS A   1       7.675  43.016  13.596  0.00  0.00    -0.238 NA
ATOM     65  H   LYS A   1       7.467  42.365  12.812  0.00  0.00    +0.142 HD
ENDBRANCH  63  64
BRANCH  63  66
ATOM     66  CB  LYS A   1       8.929  42.002  15.425  0.00  0.00    +0.026 C 
BRANCH  66  67
ATOM     67  CG  LYS A   1      10.136  42.042  16.362  0.00  0.00    -0.000 C 
BRANCH  67  68
ATOM     68  CD  LYS A   1       9.933  41.040  17.492  0.00  0.00    -0.024 C 
BRANCH  68  69
ATOM     69  CE  LYS A   1      11.218  40.735  18.237  0.00  0.00    -0.086 C 
BRANCH  69  70
ATOM     70  NZ  LYS A   1      11.632  41.833  19.135  0.00  0.00    +0.380 N 
ATOM     71  HZ1 LYS A   1      10.887  42.002  19.841  0.00  0.00    -0.089 HD
ATOM     72  HZ2 LYS A   1      12.515  41.570  19.618  0.00  0.00    -0.089 HD
ATOM     73  HZ3 LYS A   1      11.785  42.697  18.577  0.00  0.00    -0.089 HD
ENDBRANCH  69  70
ENDBRANCH  68  69
ENDBRANCH  67  68
ENDBRANCH  66  67
ENDBRANCH  63  66
ENDBRANCH  59  63
ENDBRANCH  58  60
BRANCH  58  74
ATOM     74  CB  MET A   2      13.126  43.356  11.939  0.00  0.00    +0.041 C 
BRANCH  74  75
ATOM     75  CG  MET A   2      12.324  44.307  11.102  0.00  0.00    +0.060 C 
BRANCH  75  76
ATOM     76  SD  MET A   2      12.166  43.741   9.405  0.00  0.00    -0.139 S 
ATOM     77  CE  MET A   2      13.823  43.964   8.766  0.00  0.00    +0.069 C 
ENDBRANCH  75  76
ENDBRANCH  74  75
ENDBRANCH  58  74
ENDBRANCH  54  58
ENDBRANCH  53  56
BRANCH  53  78
ATOM     78  CB  ILE A   3      13.938  38.224  14.472  0.00  0.00    +0.027 C 
ATOM     79  CG2 ILE A   3      13.033  38.661  15.622  0.00  0.00    +0.002 C 
BRANCH  78  80
ATOM     80  CG1 ILE A   3      13.188  37.379  13.456  0.00  0.00    +0.002 C 
ATOM     81  CD1 ILE A   3      12.903  35.975  13.982  0.00  0.00    +0.000 C 
ENDBRANCH  78  80
ENDBRANCH  53  78
ENDBRANCH  49  53
ENDBRANCH  48  50
ENDBRANCH  44  48
ENDBRANCH  43  46
ENDBRANCH   1  43
TORSDOF 36
REMARK  Name = ../refined-set-2016/2qi5/2qi5_pocket.pdb
REMARK  215 active torsions:
REMARK  status: ('A' for Active; 'I' for Inactive)
REMARK    1  A    between atoms: _1  and  _3
REMARK    2  A    between atoms: _3  and  _4
REMARK    3  A    between atoms: _3  and  _6
REMARK    4  A    between atoms: _6  and  _7
REMARK    5  A    between atoms: _7  and  _8
REMARK    6  A    between atoms: _8  and  _9
REMARK    7  A    between atoms: _18  and  _20
REMARK    8  A    between atoms: _20  and  _21
REMARK    9  A    between atoms: _20  and  _23
REMARK   10  A    between atoms: _23  and  _24
REMARK   11  A    between atoms: _27  and  _29
REMARK   12  A    between atoms: _29  and  _30
REMARK   13  A    between atoms: _29  and  _32
REMARK   14  A    between atoms: _32  and  _33
REMARK   15  A    between atoms: _36  and  _38
REMARK   16  A    between atoms: _38  and  _39
REMARK   17  A    between atoms: _38  and  _41
REMARK   18  A    between atoms: _41  and  _42
REMARK   19  A    between atoms: _45  and  _47
REMARK   20  A    between atoms: _47  and  _48
REMARK   21  A    between atoms: _47  and  _50
REMARK   22  A    between atoms: _50  and  _51
REMARK   23  A    between atoms: _54  and  _56
REMARK   24  A    between atoms: _56  and  _57
REMARK   25  A    between atoms: _59  and  _61
REMARK   26  A    between atoms: _61  and  _62
REMARK   27  A    between atoms: _65  and  _67
REMARK   28  A    between atoms: _67  and  _68
REMARK   29  A    between atoms: _67  and  _70
REMARK   30  A    between atoms: _70  and  _71
REMARK   31  A    between atoms: _74  and  _76
REMARK   32  A    between atoms: _76  and  _77
REMARK   33  A    between atoms: _76  and  _79
REMARK   34  A    between atoms: _79  and  _80
REMARK   35  A    between atoms: _83  and  _85
REMARK   36  A    between atoms: _85  and  _86
REMARK   37  A    between atoms: _85  and  _88
REMARK   38  A    between atoms: _88  and  _89
REMARK   39  A    between atoms: _92  and  _94
REMARK   40  A    between atoms: _94  and  _95
REMARK   41  A    between atoms: _94  and  _97
REMARK   42  A    between atoms: _100  and  _102
REMARK   43  A    between atoms: _102  and  _103
REMARK   44  A    between atoms: _102  and  _105
REMARK   45  A    between atoms: _105  and  _106
REMARK   46  A    between atoms: _109  and  _111
REMARK   47  A    between atoms: _111  and  _112
REMARK   48  A    between atoms: _114  and  _116
REMARK   49  A    between atoms: _116  and  _117
REMARK   50  A    between atoms: _119  and  _121
REMARK   51  A    between atoms: _121  and  _122
REMARK   52  A    between atoms: _121  and  _124
REMARK   53  A    between atoms: _124  and  _125
REMARK   54  A    between atoms: _128  and  _130
REMARK   55  A    between atoms: _130  and  _131
REMARK   56  A    between atoms: _133  and  _135
REMARK   57  A    between atoms: _135  and  _136
REMARK   58  A    between atoms: _138  and  _140
REMARK   59  A    between atoms: _140  and  _141
REMARK   60  A    between atoms: _140  and  _143
REMARK   61  A    between atoms: _143  and  _144
REMARK   62  A    between atoms: _150  and  _152
REMARK   63  A    between atoms: _152  and  _153
REMARK   64  A    between atoms: _152  and  _155
REMARK   65  A    between atoms: _155  and  _156
REMARK   66  A    between atoms: _159  and  _161
REMARK   67  A    between atoms: _161  and  _162
REMARK   68  A    between atoms: _161  and  _164
REMARK   69  A    between atoms: _164  and  _165
REMARK   70  A    between atoms: _169  and  _170
REMARK   71  A    between atoms: _175  and  _177
REMARK   72  A    between atoms: _177  and  _178
REMARK   73  A    between atoms: _177  and  _180
REMARK   74  A    between atoms: _180  and  _181
REMARK   75  A    between atoms: _185  and  _186
REMARK   76  A    between atoms: _191  and  _193
REMARK   77  A    between atoms: _193  and  _194
REMARK   78  A    between atoms: _193  and  _196
REMARK   79  A    between atoms: _199  and  _201
REMARK   80  A    between atoms: _201  and  _202
REMARK   81  A    between atoms: _201  and  _204
REMARK   82  A    between atoms: _204  and  _205
REMARK   83  A    between atoms: _210  and  _212
REMARK   84  A    between atoms: _212  and  _213
REMARK   85  A    between atoms: _212  and  _215
REMARK   86  A    between atoms: _215  and  _216
REMARK   87  A    between atoms: _219  and  _221
REMARK   88  A    between atoms: _221  and  _222
REMARK   89  A    between atoms: _221  and  _224
REMARK   90  A    between atoms: _224  and  _225
REMARK   91  A    between atoms: _228  and  _230
REMARK   92  A    between atoms: _230  and  _231
REMARK   93  A    between atoms: _233  and  _235
REMARK   94  A    between atoms: _235  and  _236
REMARK   95  A    between atoms: _235  and  _238
REMARK   96  A    between atoms: _238  and  _239
REMARK   97  A    between atoms: _239  and  _240
REMARK   98  A    between atoms: _240  and  _241
REMARK   99  A    between atoms: _250  and  _252
REMARK  100  A    between atoms: _252  and  _253
REMARK  101  A    between atoms: _252  and  _255
REMARK  102  A    between atoms: _255  and  _256
REMARK  103  A    between atoms: _256  and  _257
REMARK  104  A    between atoms: _257  and  _258
REMARK  105  A    between atoms: _267  and  _269
REMARK  106  A    between atoms: _269  and  _270
REMARK  107  A    between atoms: _269  and  _272
REMARK  108  A    between atoms: _272  and  _273
REMARK  109  A    between atoms: _276  and  _278
REMARK  110  A    between atoms: _278  and  _279
REMARK  111  A    between atoms: _278  and  _281
REMARK  112  A    between atoms: _281  and  _282
REMARK  113  A    between atoms: _285  and  _287
REMARK  114  A    between atoms: _287  and  _288
REMARK  115  A    between atoms: _287  and  _290
REMARK  116  A    between atoms: _290  and  _291
REMARK  117  A    between atoms: _294  and  _296
REMARK  118  A    between atoms: _296  and  _297
REMARK  119  A    between atoms: _296  and  _299
REMARK  120  A    between atoms: _299  and  _300
REMARK  121  A    between atoms: _303  and  _305
REMARK  122  A    between atoms: _305  and  _306
REMARK  123  A    between atoms: _308  and  _310
REMARK  124  A    between atoms: _310  and  _311
REMARK  125  A    between atoms: _314  and  _316
REMARK  126  A    between atoms: _316  and  _317
REMARK  127  A    between atoms: _316  and  _319
REMARK  128  A    between atoms: _319  and  _320
REMARK  129  A    between atoms: _323  and  _325
REMARK  130  A    between atoms: _325  and  _326
REMARK  131  A    between atoms: _325  and  _328
REMARK  132  A    between atoms: _328  and  _329
REMARK  133  A    between atoms: _332  and  _334
REMARK  134  A    between atoms: _334  and  _335
REMARK  135  A    between atoms: _334  and  _337
REMARK  136  A    between atoms: _337  and  _338
REMARK  137  A    between atoms: _341  and  _343
REMARK  138  A    between atoms: _343  and  _344
REMARK  139  A    between atoms: _343  and  _346
REMARK  140  A    between atoms: _349  and  _351
REMARK  141  A    between atoms: _351  and  _352
REMARK  142  A    between atoms: _351  and  _354
REMARK  143  A    between atoms: _354  and  _355
REMARK  144  A    between atoms: _355  and  _356
REMARK  145  A    between atoms: _356  and  _357
REMARK  146  A    between atoms: _357  and  _358
REMARK  147  A    between atoms: _362  and  _364
REMARK  148  A    between atoms: _364  and  _365
REMARK  149  A    between atoms: _364  and  _367
REMARK  150  A    between atoms: _367  and  _368
REMARK  151  A    between atoms: _368  and  _369
REMARK  152  A    between atoms: _371  and  _373
REMARK  153  A    between atoms: _373  and  _374
REMARK  154  A    between atoms: _373  and  _376
REMARK  155  A    between atoms: _376  and  _377
REMARK  156  A    between atoms: _380  and  _382
REMARK  157  A    between atoms: _382  and  _383
REMARK  158  A    between atoms: _385  and  _387
REMARK  159  A    between atoms: _387  and  _388
REMARK  160  A    between atoms: _390  and  _392
REMARK  161  A    between atoms: _392  and  _393
REMARK  162  A    between atoms: _392  and  _395
REMARK  163  A    between atoms: _395  and  _396
REMARK  164  A    between atoms: _399  and  _401
REMARK  165  A    between atoms: _401  and  _402
REMARK  166  A    between atoms: _404  and  _406
REMARK  167  A    between atoms: _406  and  _407
REMARK  168  A    between atoms: _409  and  _411
REMARK  169  A    between atoms: _411  and  _412
REMARK  170  A    between atoms: _411  and  _414
REMARK  171  A    between atoms: _414  and  _415
REMARK  172  A    between atoms: _421  and  _423
REMARK  173  A    between atoms: _423  and  _424
REMARK  174  A    between atoms: _423  and  _426
REMARK  175  A    between atoms: _426  and  _427
REMARK  176  A    between atoms: _430  and  _432
REMARK  177  A    between atoms: _432  and  _433
REMARK  178  A    between atoms: _432  and  _435
REMARK  179  A    between atoms: _438  and  _440
REMARK  180  A    between atoms: _440  and  _441
REMARK  181  A    between atoms: _440  and  _443
REMARK  182  A    between atoms: _443  and  _444
REMARK  183  A    between atoms: _448  and  _449
REMARK  184  A    between atoms: _454  and  _456
REMARK  185  A    between atoms: _456  and  _457
REMARK  186  A    between atoms: _456  and  _459
REMARK  187  A    between atoms: _459  and  _460
REMARK  188  A    between atoms: _464  and  _465
REMARK  189  A    between atoms: _470  and  _472
REMARK  190  A    between atoms: _472  and  _473
REMARK  191  A    between atoms: _472  and  _475
REMARK  192  A    between atoms: _478  and  _480
REMARK  193  A    between atoms: _480  and  _481
REMARK  194  A    between atoms: _480  and  _483
REMARK  195  A    between atoms: _483  and  _484
REMARK  196  A    between atoms: _489  and  _491
REMARK  197  A    between atoms: _491  and  _492
REMARK  198  A    between atoms: _491  and  _494
REMARK  199  A    between atoms: _494  and  _495
REMARK  200  A    between atoms: _498  and  _500
REMARK  201  A    between atoms: _500  and  _501
REMARK  202  A    between atoms: _500  and  _503
REMARK  203  A    between atoms: _503  and  _504
REMARK  204  A    between atoms: _507  and  _509
REMARK  205  A    between atoms: _509  and  _510
REMARK  206  A    between atoms: _512  and  _514
REMARK  207  A    between atoms: _514  and  _515
REMARK  208  A    between atoms: _514  and  _517
REMARK  209  A    between atoms: _517  and  _518
REMARK  210  A    between atoms: _518  and  _519
REMARK  211  A    between atoms: _519  and  _520
REMARK  212  A    between atoms: _529  and  _531
REMARK  213  A    between atoms: _531  and  _532
REMARK  214  A    between atoms: _531  and  _534
REMARK  215  A    between atoms: _534  and  _535
REMARK                            x       y       z     vdW  Elec       q    Type
REMARK                         _______ _______ _______ _____ _____    ______ ____
ROOT
ATOM      1  CA  VAL A   1       7.754  38.521  11.616  0.00  0.00    +0.133 C 
ENDROOT
BRANCH   1   2
ATOM      2  CB  VAL A   1       8.498  37.683  12.686  0.00  0.00    +0.023 C 
ATOM      3  CG2 VAL A   1       9.098  38.549  13.807  0.00  0.00    +0.002 C 
ATOM      4  CG1 VAL A   1       9.565  36.811  12.040  0.00  0.00    +0.002 C 
ENDBRANCH   1   2
BRANCH   1   5
ATOM      5  N   VAL A   1       8.634  39.444  10.902  0.00  0.00    -0.239 NA
ATOM      6  H   VAL A   1       8.941  40.318  11.375  0.00  0.00    +0.142 HD
ENDBRANCH   1   5
BRANCH   1   7
ATOM      7  C   VAL A   1       6.566  39.250  12.247  0.00  0.00    +0.224 C 
ATOM      8  O   VAL A   1       6.553  40.481  12.366  0.00  0.00    -0.287 OA
ENDBRANCH   1   7
TORSDOF 3
REMARK  Name = ../refined-set-2016/2qi5/2qi5_pocket.pdb
REMARK  215 active torsions:
REMARK  status: ('A' for Active; 'I' for Inactive)
REMARK    1  A    between atoms: _1  and  _3
REMARK    2  A    between atoms: _3  and  _4
REMARK    3  A    between atoms: _3  and  _6
REMARK    4  A    between atoms: _6  and  _7
REMARK    5  A    between atoms: _7  and  _8
REMARK    6  A    between atoms: _8  and  _9
REMARK    7  A    between atoms: _18  and  _20
REMARK    8  A    between atoms: _20  and  _21
REMARK    9  A    between atoms: _20  and  _23
REMARK   10  A    between atoms: _23  and  _24
REMARK   11  A    between atoms: _27  and  _29
REMARK   12  A    between atoms: _29  and  _30
REMARK   13  A    between atoms: _29  and  _32
REMARK   14  A    between atoms: _32  and  _33
REMARK   15  A    between atoms: _36  and  _38
REMARK   16  A    between atoms: _38  and  _39
REMARK   17  A    between atoms: _38  and  _41
REMARK   18  A    between atoms: _41  and  _42
REMARK   19  A    between atoms: _45  and  _47
REMARK   20  A    between atoms: _47  and  _48
REMARK   21  A    between atoms: _47  and  _50
REMARK   22  A    between atoms: _50  and  _51
REMARK   23  A    between atoms: _54  and  _56
REMARK   24  A    between atoms: _56  and  _57
REMARK   25  A    between atoms: _59  and  _61
REMARK   26  A    between atoms: _61  and  _62
REMARK   27  A    between atoms: _65  and  _67
REMARK   28  A    between atoms: _67  and  _68
REMARK   29  A    between atoms: _67  and  _70
REMARK   30  A    between atoms: _70  and  _71
REMARK   31  A    between atoms: _74  and  _76
REMARK   32  A    between atoms: _76  and  _77
REMARK   33  A    between atoms: _76  and  _79
REMARK   34  A    between atoms: _79  and  _80
REMARK   35  A    between atoms: _83  and  _85
REMARK   36  A    between atoms: _85  and  _86
REMARK   37  A    between atoms: _85  and  _88
REMARK   38  A    between atoms: _88  and  _89
REMARK   39  A    between atoms: _92  and  _94
REMARK   40  A    between atoms: _94  and  _95
REMARK   41  A    between atoms: _94  and  _97
REMARK   42  A    between atoms: _100  and  _102
REMARK   43  A    between atoms: _102  and  _103
REMARK   44  A    between atoms: _102  and  _105
REMARK   45  A    between atoms: _105  and  _106
REMARK   46  A    between atoms: _109  and  _111
REMARK   47  A    between atoms: _111  and  _112
REMARK   48  A    between atoms: _114  and  _116
REMARK   49  A    between atoms: _116  and  _117
REMARK   50  A    between atoms: _119  and  _121
REMARK   51  A    between atoms: _121  and  _122
REMARK   52  A    between atoms: _121  and  _124
REMARK   53  A    between atoms: _124  and  _125
REMARK   54  A    between atoms: _128  and  _130
REMARK   55  A    between atoms: _130  and  _131
REMARK   56  A    between atoms: _133  and  _135
REMARK   57  A    between atoms: _135  and  _136
REMARK   58  A    between atoms: _138  and  _140
REMARK   59  A    between atoms: _140  and  _141
REMARK   60  A    between atoms: _140  and  _143
REMARK   61  A    between atoms: _143  and  _144
REMARK   62  A    between atoms: _150  and  _152
REMARK   63  A    between atoms: _152  and  _153
REMARK   64  A    between atoms: _152  and  _155
REMARK   65  A    between atoms: _155  and  _156
REMARK   66  A    between atoms: _159  and  _161
REMARK   67  A    between atoms: _161  and  _162
REMARK   68  A    between atoms: _161  and  _164
REMARK   69  A    between atoms: _164  and  _165
REMARK   70  A    between atoms: _169  and  _170
REMARK   71  A    between atoms: _175  and  _177
REMARK   72  A    between atoms: _177  and  _178
REMARK   73  A    between atoms: _177  and  _180
REMARK   74  A    between atoms: _180  and  _181
REMARK   75  A    between atoms: _185  and  _186
REMARK   76  A    between atoms: _191  and  _193
REMARK   77  A    between atoms: _193  and  _194
REMARK   78  A    between atoms: _193  and  _196
REMARK   79  A    between atoms: _199  and  _201
REMARK   80  A    between atoms: _201  and  _202
REMARK   81  A    between atoms: _201  and  _204
REMARK   82  A    between atoms: _204  and  _205
REMARK   83  A    between atoms: _210  and  _212
REMARK   84  A    between atoms: _212  and  _213
REMARK   85  A    between atoms: _212  and  _215
REMARK   86  A    between atoms: _215  and  _216
REMARK   87  A    between atoms: _219  and  _221
REMARK   88  A    between atoms: _221  and  _222
REMARK   89  A    between atoms: _221  and  _224
REMARK   90  A    between atoms: _224  and  _225
REMARK   91  A    between atoms: _228  and  _230
REMARK   92  A    between atoms: _230  and  _231
REMARK   93  A    between atoms: _233  and  _235
REMARK   94  A    between atoms: _235  and  _236
REMARK   95  A    between atoms: _235  and  _238
REMARK   96  A    between atoms: _238  and  _239
REMARK   97  A    between atoms: _239  and  _240
REMARK   98  A    between atoms: _240  and  _241
REMARK   99  A    between atoms: _250  and  _252
REMARK  100  A    between atoms: _252  and  _253
REMARK  101  A    between atoms: _252  and  _255
REMARK  102  A    between atoms: _255  and  _256
REMARK  103  A    between atoms: _256  and  _257
REMARK  104  A    between atoms: _257  and  _258
REMARK  105  A    between atoms: _267  and  _269
REMARK  106  A    between atoms: _269  and  _270
REMARK  107  A    between atoms: _269  and  _272
REMARK  108  A    between atoms: _272  and  _273
REMARK  109  A    between atoms: _276  and  _278
REMARK  110  A    between atoms: _278  and  _279
REMARK  111  A    between atoms: _278  and  _281
REMARK  112  A    between atoms: _281  and  _282
REMARK  113  A    between atoms: _285  and  _287
REMARK  114  A    between atoms: _287  and  _288
REMARK  115  A    between atoms: _287  and  _290
REMARK  116  A    between atoms: _290  and  _291
REMARK  117  A    between atoms: _294  and  _296
REMARK  118  A    between atoms: _296  and  _297
REMARK  119  A    between atoms: _296  and  _299
REMARK  120  A    between atoms: _299  and  _300
REMARK  121  A    between atoms: _303  and  _305
REMARK  122  A    between atoms: _305  and  _306
REMARK  123  A    between atoms: _308  and  _310
REMARK  124  A    between atoms: _310  and  _311
REMARK  125  A    between atoms: _314  and  _316
REMARK  126  A    between atoms: _316  and  _317
REMARK  127  A    between atoms: _316  and  _319
REMARK  128  A    between atoms: _319  and  _320
REMARK  129  A    between atoms: _323  and  _325
REMARK  130  A    between atoms: _325  and  _326
REMARK  131  A    between atoms: _325  and  _328
REMARK  132  A    between atoms: _328  and  _329
REMARK  133  A    between atoms: _332  and  _334
REMARK  134  A    between atoms: _334  and  _335
REMARK  135  A    between atoms: _334  and  _337
REMARK  136  A    between atoms: _337  and  _338
REMARK  137  A    between atoms: _341  and  _343
REMARK  138  A    between atoms: _343  and  _344
REMARK  139  A    between atoms: _343  and  _346
REMARK  140  A    between atoms: _349  and  _351
REMARK  141  A    between atoms: _351  and  _352
REMARK  142  A    between atoms: _351  and  _354
REMARK  143  A    between atoms: _354  and  _355
REMARK  144  A    between atoms: _355  and  _356
REMARK  145  A    between atoms: _356  and  _357
REMARK  146  A    between atoms: _357  and  _358
REMARK  147  A    between atoms: _362  and  _364
REMARK  148  A    between atoms: _364  and  _365
REMARK  149  A    between atoms: _364  and  _367
REMARK  150  A    between atoms: _367  and  _368
REMARK  151  A    between atoms: _368  and  _369
REMARK  152  A    between atoms: _371  and  _373
REMARK  153  A    between atoms: _373  and  _374
REMARK  154  A    between atoms: _373  and  _376
REMARK  155  A    between atoms: _376  and  _377
REMARK  156  A    between atoms: _380  and  _382
REMARK  157  A    between atoms: _382  and  _383
REMARK  158  A    between atoms: _385  and  _387
REMARK  159  A    between atoms: _387  and  _388
REMARK  160  A    between atoms: _390  and  _392
REMARK  161  A    between atoms: _392  and  _393
REMARK  162  A    between atoms: _392  and  _395
REMARK  163  A    between atoms: _395  and  _396
REMARK  164  A    between atoms: _399  and  _401
REMARK  165  A    between atoms: _401  and  _402
REMARK  166  A    between atoms: _404  and  _406
REMARK  167  A    between atoms: _406  and  _407
REMARK  168  A    between atoms: _409  and  _411
REMARK  169  A    between atoms: _411  and  _412
REMARK  170  A    between atoms: _411  and  _414
REMARK  171  A    between atoms: _414  and  _415
REMARK  172  A    between atoms: _421  and  _423
REMARK  173  A    between atoms: _423  and  _424
REMARK  174  A    between atoms: _423  and  _426
REMARK  175  A    between atoms: _426  and  _427
REMARK  176  A    between atoms: _430  and  _432
REMARK  177  A    between atoms: _432  and  _433
REMARK  178  A    between atoms: _432  and  _435
REMARK  179  A    between atoms: _438  and  _440
REMARK  180  A    between atoms: _440  and  _441
REMARK  181  A    between atoms: _440  and  _443
REMARK  182  A    between atoms: _443  and  _444
REMARK  183  A    between atoms: _448  and  _449
REMARK  184  A    between atoms: _454  and  _456
REMARK  185  A    between atoms: _456  and  _457
REMARK  186  A    between atoms: _456  and  _459
REMARK  187  A    between atoms: _459  and  _460
REMARK  188  A    between atoms: _464  and  _465
REMARK  189  A    between atoms: _470  and  _472
REMARK  190  A    between atoms: _472  and  _473
REMARK  191  A    between atoms: _472  and  _475
REMARK  192  A    between atoms: _478  and  _480
REMARK  193  A    between atoms: _480  and  _481
REMARK  194  A    between atoms: _480  and  _483
REMARK  195  A    between atoms: _483  and  _484
REMARK  196  A    between atoms: _489  and  _491
REMARK  197  A    between atoms: _491  and  _492
REMARK  198  A    between atoms: _491  and  _494
REMARK  199  A    between atoms: _494  and  _495
REMARK  200  A    between atoms: _498  and  _500
REMARK  201  A    between atoms: _500  and  _501
REMARK  202  A    between atoms: _500  and  _503
REMARK  203  A    between atoms: _503  and  _504
REMARK  204  A    between atoms: _507  and  _509
REMARK  205  A    between atoms: _509  and  _510
REMARK  206  A    between atoms: _512  and  _514
REMARK  207  A    between atoms: _514  and  _515
REMARK  208  A    between atoms: _514  and  _517
REMARK  209  A    between atoms: _517  and  _518
REMARK  210  A    between atoms: _518  and  _519
REMARK  211  A    between atoms: _519  and  _520
REMARK  212  A    between atoms: _529  and  _531
REMARK  213  A    between atoms: _531  and  _532
REMARK  214  A    between atoms: _531  and  _534
REMARK  215  A    between atoms: _534  and  _535
REMARK                            x       y       z     vdW  Elec       q    Type
REMARK                         _______ _______ _______ _____ _____    ______ ____
ROOT
ATOM      1  CA  LEU A   1       6.882  35.233  16.391  0.00  0.00    +0.133 C 
ENDROOT
BRANCH   1   2
ATOM      2  N   LEU A   1       6.658  34.483  17.614  0.00  0.00    -0.239 NA
ATOM      3  H   LEU A   1       7.404  33.833  17.935  0.00  0.00    +0.142 HD
ENDBRANCH   1   2
BRANCH   1   4
ATOM      4  C   LEU A   1       6.560  34.331  15.199  0.00  0.00    +0.224 C 
ATOM      5  O   LEU A   1       7.007  33.180  15.150  0.00  0.00    -0.287 OA
ENDBRANCH   1   4
BRANCH   1   6
ATOM      6  CB  LEU A   1       8.340  35.679  16.325  0.00  0.00    +0.025 C 
BRANCH   6   7
ATOM      7  CG  LEU A   1       8.894  36.402  17.561  0.00  0.00    +0.002 C 
ATOM      8  CD2 LEU A   1       8.033  37.600  17.934  0.00  0.00    +0.000 C 
ATOM      9  CD1 LEU A   1      10.321  36.853  17.267  0.00  0.00    +0.000 C 
ENDBRANCH   6   7
ENDBRANCH   1   6
TORSDOF 4
REMARK  Name = ../refined-set-2016/2qi5/2qi5_pocket.pdb
REMARK  215 active torsions:
REMARK  status: ('A' for Active; 'I' for Inactive)
REMARK    1  A    between atoms: _1  and  _3
REMARK    2  A    between atoms: _3  and  _4
REMARK    3  A    between atoms: _3  and  _6
REMARK    4  A    between atoms: _6  and  _7
REMARK    5  A    between atoms: _7  and  _8
REMARK    6  A    between atoms: _8  and  _9
REMARK    7  A    between atoms: _18  and  _20
REMARK    8  A    between atoms: _20  and  _21
REMARK    9  A    between atoms: _20  and  _23
REMARK   10  A    between atoms: _23  and  _24
REMARK   11  A    between atoms: _27  and  _29
REMARK   12  A    between atoms: _29  and  _30
REMARK   13  A    between atoms: _29  and  _32
REMARK   14  A    between atoms: _32  and  _33
REMARK   15  A    between atoms: _36  and  _38
REMARK   16  A    between atoms: _38  and  _39
REMARK   17  A    between atoms: _38  and  _41
REMARK   18  A    between atoms: _41  and  _42
REMARK   19  A    between atoms: _45  and  _47
REMARK   20  A    between atoms: _47  and  _48
REMARK   21  A    between atoms: _47  and  _50
REMARK   22  A    between atoms: _50  and  _51
REMARK   23  A    between atoms: _54  and  _56
REMARK   24  A    between atoms: _56  and  _57
REMARK   25  A    between atoms: _59  and  _61
REMARK   26  A    between atoms: _61  and  _62
REMARK   27  A    between atoms: _65  and  _67
REMARK   28  A    between atoms: _67  and  _68
REMARK   29  A    between atoms: _67  and  _70
REMARK   30  A    between atoms: _70  and  _71
REMARK   31  A    between atoms: _74  and  _76
REMARK   32  A    between atoms: _76  and  _77
REMARK   33  A    between atoms: _76  and  _79
REMARK   34  A    between atoms: _79  and  _80
REMARK   35  A    between atoms: _83  and  _85
REMARK   36  A    between atoms: _85  and  _86
REMARK   37  A    between atoms: _85  and  _88
REMARK   38  A    between atoms: _88  and  _89
REMARK   39  A    between atoms: _92  and  _94
REMARK   40  A    between atoms: _94  and  _95
REMARK   41  A    between atoms: _94  and  _97
REMARK   42  A    between atoms: _100  and  _102
REMARK   43  A    between atoms: _102  and  _103
REMARK   44  A    between atoms: _102  and  _105
REMARK   45  A    between atoms: _105  and  _106
REMARK   46  A    between atoms: _109  and  _111
REMARK   47  A    between atoms: _111  and  _112
REMARK   48  A    between atoms: _114  and  _116
REMARK   49  A    between atoms: _116  and  _117
REMARK   50  A    between atoms: _119  and  _121
REMARK   51  A    between atoms: _121  and  _122
REMARK   52  A    between atoms: _121  and  _124
REMARK   53  A    between atoms: _124  and  _125
REMARK   54  A    between atoms: _128  and  _130
REMARK   55  A    between atoms: _130  and  _131
REMARK   56  A    between atoms: _133  and  _135
REMARK   57  A    between atoms: _135  and  _136
REMARK   58  A    between atoms: _138  and  _140
REMARK   59  A    between atoms: _140  and  _141
REMARK   60  A    between atoms: _140  and  _143
REMARK   61  A    between atoms: _143  and  _144
REMARK   62  A    between atoms: _150  and  _152
REMARK   63  A    between atoms: _152  and  _153
REMARK   64  A    between atoms: _152  and  _155
REMARK   65  A    between atoms: _155  and  _156
REMARK   66  A    between atoms: _159  and  _161
REMARK   67  A    between atoms: _161  and  _162
REMARK   68  A    between atoms: _161  and  _164
REMARK   69  A    between atoms: _164  and  _165
REMARK   70  A    between atoms: _169  and  _170
REMARK   71  A    between atoms: _175  and  _177
REMARK   72  A    between atoms: _177  and  _178
REMARK   73  A    between atoms: _177  and  _180
REMARK   74  A    between atoms: _180  and  _181
REMARK   75  A    between atoms: _185  and  _186
REMARK   76  A    between atoms: _191  and  _193
REMARK   77  A    between atoms: _193  and  _194
REMARK   78  A    between atoms: _193  and  _196
REMARK   79  A    between atoms: _199  and  _201
REMARK   80  A    between atoms: _201  and  _202
REMARK   81  A    between atoms: _201  and  _204
REMARK   82  A    between atoms: _204  and  _205
REMARK   83  A    between atoms: _210  and  _212
REMARK   84  A    between atoms: _212  and  _213
REMARK   85  A    between atoms: _212  and  _215
REMARK   86  A    between atoms: _215  and  _216
REMARK   87  A    between atoms: _219  and  _221
REMARK   88  A    between atoms: _221  and  _222
REMARK   89  A    between atoms: _221  and  _224
REMARK   90  A    between atoms: _224  and  _225
REMARK   91  A    between atoms: _228  and  _230
REMARK   92  A    between atoms: _230  and  _231
REMARK   93  A    between atoms: _233  and  _235
REMARK   94  A    between atoms: _235  and  _236
REMARK   95  A    between atoms: _235  and  _238
REMARK   96  A    between atoms: _238  and  _239
REMARK   97  A    between atoms: _239  and  _240
REMARK   98  A    between atoms: _240  and  _241
REMARK   99  A    between atoms: _250  and  _252
REMARK  100  A    between atoms: _252  and  _253
REMARK  101  A    between atoms: _252  and  _255
REMARK  102  A    between atoms: _255  and  _256
REMARK  103  A    between atoms: _256  and  _257
REMARK  104  A    between atoms: _257  and  _258
REMARK  105  A    between atoms: _267  and  _269
REMARK  106  A    between atoms: _269  and  _270
REMARK  107  A    between atoms: _269  and  _272
REMARK  108  A    between atoms: _272  and  _273
REMARK  109  A    between atoms: _276  and  _278
REMARK  110  A    between atoms: _278  and  _279
REMARK  111  A    between atoms: _278  and  _281
REMARK  112  A    between atoms: _281  and  _282
REMARK  113  A    between atoms: _285  and  _287
REMARK  114  A    between atoms: _287  and  _288
REMARK  115  A    between atoms: _287  and  _290
REMARK  116  A    between atoms: _290  and  _291
REMARK  117  A    between atoms: _294  and  _296
REMARK  118  A    between atoms: _296  and  _297
REMARK  119  A    between atoms: _296  and  _299
REMARK  120  A    between atoms: _299  and  _300
REMARK  121  A    between atoms: _303  and  _305
REMARK  122  A    between atoms: _305  and  _306
REMARK  123  A    between atoms: _308  and  _310
REMARK  124  A    between atoms: _310  and  _311
REMARK  125  A    between atoms: _314  and  _316
REMARK  126  A    between atoms: _316  and  _317
REMARK  127  A    between atoms: _316  and  _319
REMARK  128  A    between atoms: _319  and  _320
REMARK  129  A    between atoms: _323  and  _325
REMARK  130  A    between atoms: _325  and  _326
REMARK  131  A    between atoms: _325  and  _328
REMARK  132  A    between atoms: _328  and  _329
REMARK  133  A    between atoms: _332  and  _334
REMARK  134  A    between atoms: _334  and  _335
REMARK  135  A    between atoms: _334  and  _337
REMARK  136  A    between atoms: _337  and  _338
REMARK  137  A    between atoms: _341  and  _343
REMARK  138  A    between atoms: _343  and  _344
REMARK  139  A    between atoms: _343  and  _346
REMARK  140  A    between atoms: _349  and  _351
REMARK  141  A    between atoms: _351  and  _352
REMARK  142  A    between atoms: _351  and  _354
REMARK  143  A    between atoms: _354  and  _355
REMARK  144  A    between atoms: _355  and  _356
REMARK  145  A    between atoms: _356  and  _357
REMARK  146  A    between atoms: _357  and  _358
REMARK  147  A    between atoms: _362  and  _364
REMARK  148  A    between atoms: _364  and  _365
REMARK  149  A    between atoms: _364  and  _367
REMARK  150  A    between atoms: _367  and  _368
REMARK  151  A    between atoms: _368  and  _369
REMARK  152  A    between atoms: _371  and  _373
REMARK  153  A    between atoms: _373  and  _374
REMARK  154  A    between atoms: _373  and  _376
REMARK  155  A    between atoms: _376  and  _377
REMARK  156  A    between atoms: _380  and  _382
REMARK  157  A    between atoms: _382  and  _383
REMARK  158  A    between atoms: _385  and  _387
REMARK  159  A    between atoms: _387  and  _388
REMARK  160  A    between atoms: _390  and  _392
REMARK  161  A    between atoms: _392  and  _393
REMARK  162  A    between atoms: _392  and  _395
REMARK  163  A    between atoms: _395  and  _396
REMARK  164  A    between atoms: _399  and  _401
REMARK  165  A    between atoms: _401  and  _402
REMARK  166  A    between atoms: _404  and  _406
REMARK  167  A    between atoms: _406  and  _407
REMARK  168  A    between atoms: _409  and  _411
REMARK  169  A    between atoms: _411  and  _412
REMARK  170  A    between atoms: _411  and  _414
REMARK  171  A    between atoms: _414  and  _415
REMARK  172  A    between atoms: _421  and  _423
REMARK  173  A    between atoms: _423  and  _424
REMARK  174  A    between atoms: _423  and  _426
REMARK  175  A    between atoms: _426  and  _427
REMARK  176  A    between atoms: _430  and  _432
REMARK  177  A    between atoms: _432  and  _433
REMARK  178  A    between atoms: _432  and  _435
REMARK  179  A    between atoms: _438  and  _440
REMARK  180  A    between atoms: _440  and  _441
REMARK  181  A    between atoms: _440  and  _443
REMARK  182  A    between atoms: _443  and  _444
REMARK  183  A    between atoms: _448  and  _449
REMARK  184  A    between atoms: _454  and  _456
REMARK  185  A    between atoms: _456  and  _457
REMARK  186  A    between atoms: _456  and  _459
REMARK  187  A    between atoms: _459  and  _460
REMARK  188  A    between atoms: _464  and  _465
REMARK  189  A    between atoms: _470  and  _472
REMARK  190  A    between atoms: _472  and  _473
REMARK  191  A    between atoms: _472  and  _475
REMARK  192  A    between atoms: _478  and  _480
REMARK  193  A    between atoms: _480  and  _481
REMARK  194  A    between atoms: _480  and  _483
REMARK  195  A    between atoms: _483  and  _484
REMARK  196  A    between atoms: _489  and  _491
REMARK  197  A    between atoms: _491  and  _492
REMARK  198  A    between atoms: _491  and  _494
REMARK  199  A    between atoms: _494  and  _495
REMARK  200  A    between atoms: _498  and  _500
REMARK  201  A    between atoms: _500  and  _501
REMARK  202  A    between atoms: _500  and  _503
REMARK  203  A    between atoms: _503  and  _504
REMARK  204  A    between atoms: _507  and  _509
REMARK  205  A    between atoms: _509  and  _510
REMARK  206  A    between atoms: _512  and  _514
REMARK  207  A    between atoms: _514  and  _515
REMARK  208  A    between atoms: _514  and  _517
REMARK  209  A    between atoms: _517  and  _518
REMARK  210  A    between atoms: _518  and  _519
REMARK  211  A    between atoms: _519  and  _520
REMARK  212  A    between atoms: _529  and  _531
REMARK  213  A    between atoms: _531  and  _532
REMARK  214  A    between atoms: _531  and  _534
REMARK  215  A    between atoms: _534  and  _535
REMARK                            x       y       z     vdW  Elec       q    Type
REMARK                         _______ _______ _______ _____ _____    ______ ____
ROOT
ATOM      1  CA  ILE A   6      12.181  27.355  16.597  0.00  0.00    +0.149 C 
ENDROOT
BRANCH   1   3
ATOM      2  C   ASN A   5      10.944  26.026  14.945  0.00  0.00    +0.241 C 
ATOM      3  N   ILE A   6      11.101  27.145  15.643  0.00  0.00    -0.297 N 
ATOM      4  H   ILE A   6      10.415  27.913  15.500  0.00  0.00    +0.150 HD
ATOM      5  O   ASN A   5      11.604  25.010  15.140  0.00  0.00    -0.273 OA
BRANCH   2   6
ATOM      6  CA  ASN A   5       9.868  26.047  13.857  0.00  0.00    +0.158 C 
BRANCH   6   8
ATOM      7  C   VAL A   4      11.344  26.284  11.932  0.00  0.00    +0.241 C 
ATOM      8  N   ASN A   5      10.479  25.548  12.623  0.00  0.00    -0.297 N 
ATOM      9  H   ASN A   5      10.231  24.598  12.280  0.00  0.00    +0.150 HD
ATOM     10  O   VAL A   4      11.565  27.470  12.183  0.00  0.00    -0.273 OA
BRANCH   7  11
ATOM     11  CA  VAL A   4      12.036  25.601  10.760  0.00  0.00    +0.149 C 
BRANCH  11  13
ATOM     12  C   PRO A   3      12.146  26.246   8.402  0.00  0.00    +0.241 C 
ATOM     13  N   VAL A   4      12.243  26.568   9.688  0.00  0.00    -0.297 N 
ATOM     14  H   VAL A   4      12.476  27.550   9.940  0.00  0.00    +0.150 HD
ATOM     15  O   PRO A   3      11.840  25.111   8.002  0.00  0.00    -0.273 OA
BRANCH  12  22
ATOM     16  C   THR A   2      11.326  29.345   8.273  0.00  0.00    +0.246 C 
ATOM     17  O   THR A   2      10.217  28.850   8.075  0.00  0.00    -0.273 OA
ATOM     18  N   PRO A   3      12.458  28.718   7.934  0.00  0.00    -0.272 N 
ATOM     19  CD  PRO A   3      13.817  29.284   8.042  0.00  0.00    +0.094 C 
ATOM     20  CG  PRO A   3      14.708  28.160   7.625  0.00  0.00    +0.024 C 
ATOM     21  CB  PRO A   3      13.880  27.187   6.867  0.00  0.00    +0.031 C 
ATOM     22  CA  PRO A   3      12.453  27.358   7.395  0.00  0.00    +0.152 C 
BRANCH  16  23
ATOM     23  CA  THR A   2      11.453  30.727   8.923  0.00  0.00    +0.176 C 
BRANCH  23  25
ATOM     24  C   PRO A   1      10.368  32.193   7.334  0.00  0.00    +0.239 C 
ATOM     25  N   THR A   2      10.329  31.530   8.478  0.00  0.00    -0.295 N 
ATOM     26  H   THR A   2       9.476  31.585   9.070  0.00  0.00    +0.150 HD
ATOM     27  O   PRO A   1      11.397  32.320   6.675  0.00  0.00    -0.274 OA
BRANCH  24  32
ATOM     28  N   PRO A   1       8.475  33.733   7.841  0.00  0.00    -0.210 NA
ATOM     29  CD  PRO A   1       8.682  35.145   7.461  0.00  0.00    +0.089 C 
ATOM     30  CG  PRO A   1       9.475  35.067   6.192  0.00  0.00    +0.021 C 
ATOM     31  CB  PRO A   1       9.234  33.686   5.632  0.00  0.00    +0.028 C 
ATOM     32  CA  PRO A   1       9.047  32.809   6.871  0.00  0.00    +0.149 C 
ENDBRANCH  24  32
ENDBRANCH  23  25
BRANCH  23  33
ATOM     33  CB  THR A   2      11.499  30.617  10.465  0.00  0.00    +0.137 C 
ATOM     34  CG2 THR A   2      10.158  30.178  11.050  0.00  0.00    +0.034 C 
BRANCH  33  35
ATOM     35  OG1 THR A   2      12.503  29.678  10.848  0.00  0.00    -0.382 OA
ATOM     36  HG1 THR A   2      12.290  28.792  10.461  0.00  0.00    +0.210 HD
ENDBRANCH  33  35
ENDBRANCH  23  33
ENDBRANCH  16  23
ENDBRANCH  12  22
ENDBRANCH  11  13
BRANCH  11  37
ATOM     37  CB  VAL A   4      13.377  24.993  11.242  0.00  0.00    +0.027 C 
ATOM     38  CG2 VAL A   4      14.384  26.084  11.596  0.00  0.00    +0.002 C 
ATOM     39  CG1 VAL A   4      13.950  24.058  10.194  0.00  0.00    +0.002 C 
ENDBRANCH  11  37
ENDBRANCH   7  11
ENDBRANCH   6   8
BRANCH   6  40
ATOM     40  CB  ASN A   5       8.690  25.169  14.301  0.00  0.00    +0.114 C 
BRANCH  40  41
ATOM     41  CG  ASN A   5       7.500  25.254  13.365  0.00  0.00    +0.222 C 
ATOM     42  OD1 ASN A   5       7.050  26.340  13.000  0.00  0.00    -0.275 OA
ATOM     43  ND2 ASN A   5       6.974  24.098  12.983  0.00  0.00    -0.329 N 
ATOM     44 HD21 ASN A   5       7.387  23.203  13.316  0.00  0.00    +0.145 HD
ATOM     45 HD22 ASN A   5       6.149  24.086  12.350  0.00  0.00    +0.145 HD
ENDBRANCH  40  41
ENDBRANCH   6  40
ENDBRANCH   2   6
ENDBRANCH   1   3
BRANCH   1  46
ATOM     46  C   ILE A   6      11.606  27.683  17.975  0.00  0.00    +0.241 C 
ATOM     47  N   ILE A   7      11.929  26.863  18.967  0.00  0.00    -0.297 N 
ATOM     48  H   ILE A   7      12.477  26.003  18.763  0.00  0.00    +0.150 HD
ATOM     49  O   ILE A   6      10.868  28.663  18.140  0.00  0.00    -0.273 OA
BRANCH  47  50
ATOM     50  CA  ILE A   7      11.527  27.151  20.339  0.00  0.00    +0.149 C 
BRANCH  50  51
ATOM     51  C   ILE A   7      12.724  27.807  20.986  0.00  0.00    +0.241 C 
ATOM     52  N   GLY A   8      12.553  29.069  21.378  0.00  0.00    -0.295 N 
ATOM     53  H   GLY A   8      11.610  29.497  21.280  0.00  0.00    +0.150 HD
ATOM     54  O   ILE A   7      13.772  27.174  21.119  0.00  0.00    -0.273 OA
BRANCH  52  55
ATOM     55  CA  GLY A   8      13.632  29.879  21.940  0.00  0.00    +0.176 C 
BRANCH  55  56
ATOM     56  C   GLY A   8      13.592  29.939  23.444  0.00  0.00    +0.243 C 
ATOM     57  O   GLY A   8      12.715  29.340  24.076  0.00  0.00    -0.273 OA
ATOM     58  N   ARG A   9      14.537  30.683  24.012  0.00  0.00    -0.297 N 
ATOM     59  H   ARG A   9      15.151  31.270  23.412  0.00  0.00    +0.150 HD
BRANCH  58  60
ATOM     60  CA  ARG A   9      14.733  30.694  25.461  0.00  0.00    +0.149 C 
BRANCH  60  61
ATOM     61  C   ARG A   9      13.518  31.201  26.229  0.00  0.00    +0.241 C 
ATOM     62  O   ARG A   9      13.256  30.728  27.337  0.00  0.00    -0.273 OA
ATOM     63  N   ASN A  10      12.763  32.126  25.638  0.00  0.00    -0.298 N 
ATOM     64  H   ASN A  10      13.029  32.480  24.697  0.00  0.00    +0.150 HD
BRANCH  63  65
ATOM     65  CA  ASN A  10      11.564  32.651  26.294  0.00  0.00    +0.146 C 
BRANCH  65  66
ATOM     66  C   ASN A  10      10.611  31.542  26.752  0.00  0.00    +0.227 C 
ATOM     67  O   ASN A  10       9.953  31.669  27.784  0.00  0.00    -0.286 OA
ENDBRANCH  65  66
BRANCH  65  68
ATOM     68  CB  ASN A  10      10.829  33.677  25.409  0.00  0.00    +0.112 C 
BRANCH  68  69
ATOM     69  CG  ASN A  10      10.072  33.032  24.262  0.00  0.00    +0.222 C 
ATOM     70  ND2 ASN A  10       8.764  33.299  24.168  0.00  0.00    -0.329 N 
ATOM     71 HD21 ASN A  10       8.307  33.912  24.872  0.00  0.00    +0.145 HD
ATOM     72 HD22 ASN A  10       8.205  32.893  23.391  0.00  0.00    +0.145 HD
ATOM     73  OD1 ASN A  10      10.661  32.317  23.461  0.00  0.00    -0.275 OA
ENDBRANCH  68  69
ENDBRANCH  65  68
ENDBRANCH  63  65
ENDBRANCH  60  61
BRANCH  60  74
ATOM     74  CB  ARG A   9      15.980  31.491  25.844  0.00  0.00    +0.033 C 
BRANCH  74  75
ATOM     75  CG  ARG A   9      17.286  30.878  25.337  0.00  0.00    +0.045 C 
BRANCH  75  76
ATOM     76  CD  ARG A   9      18.519  31.607  25.843  0.00  0.00    +0.174 C 
BRANCH  76  77
ATOM     77  NE  ARG A   9      18.591  32.978  25.343  0.00  0.00    -0.265 N 
ATOM     78  CZ  ARG A   9      18.189  34.057  26.009  0.00  0.00    +0.342 C 
ATOM     79  NH2 ARG A   9      17.695  33.972  27.238  0.00  0.00    -0.292 N 
ATOM     80 HH21 ARG A   9      17.388  34.832  27.736  0.00  0.00    +0.255 HD
ATOM     81 HH22 ARG A   9      17.615  33.045  27.703  0.00  0.00    +0.255 HD
ATOM     82  NH1 ARG A   9      18.304  35.244  25.433  0.00  0.00    -0.292 N 
ATOM     83 HH11 ARG A   9      17.995  36.099  25.938  0.00  0.00    +0.255 HD
ATOM     84 HH12 ARG A   9      18.703  35.321  24.476  0.00  0.00    +0.255 HD
ATOM     85  HE  ARG A   9      18.987  33.121  24.392  0.00  0.00    +0.259 HD
ENDBRANCH  76  77
ENDBRANCH  75  76
ENDBRANCH  74  75
ENDBRANCH  60  74
ENDBRANCH  58  60
ENDBRANCH  55  56
ENDBRANCH  52  55
ENDBRANCH  50  51
BRANCH  50  86
ATOM     86  CB  ILE A   7      11.139  25.886  21.140  0.00  0.00    +0.027 C 
ATOM     87  CG2 ILE A   7      10.778  26.265  22.574  0.00  0.00    +0.002 C 
BRANCH  86  88
ATOM     88  CG1 ILE A   7       9.994  25.149  20.446  0.00  0.00    +0.002 C 
ATOM     89  CD1 ILE A   7       8.747  25.985  20.230  0.00  0.00    +0.000 C 
ENDBRANCH  86  88
ENDBRANCH  50  86
ENDBRANCH  47  50
ENDBRANCH   1  46
BRANCH   1  90
ATOM     90  CB  ILE A   6      13.085  28.512  16.132  0.00  0.00    +0.027 C 
ATOM     91  CG2 ILE A   6      14.116  28.887  17.199  0.00  0.00    +0.002 C 
BRANCH  90  92
ATOM     92  CG1 ILE A   6      13.822  28.130  14.847  0.00  0.00    +0.002 C 
ATOM     93  CD1 ILE A   6      14.324  29.337  14.100  0.00  0.00    +0.000 C 
ENDBRANCH  90  92
ENDBRANCH   1  90
TORSDOF 33
REMARK  Name = ../refined-set-2016/2qi5/2qi5_pocket.pdb
REMARK  215 active torsions:
REMARK  status: ('A' for Active; 'I' for Inactive)
REMARK    1  A    between atoms: _1  and  _3
REMARK    2  A    between atoms: _3  and  _4
REMARK    3  A    between atoms: _3  and  _6
REMARK    4  A    between atoms: _6  and  _7
REMARK    5  A    between atoms: _7  and  _8
REMARK    6  A    between atoms: _8  and  _9
REMARK    7  A    between atoms: _18  and  _20
REMARK    8  A    between atoms: _20  and  _21
REMARK    9  A    between atoms: _20  and  _23
REMARK   10  A    between atoms: _23  and  _24
REMARK   11  A    between atoms: _27  and  _29
REMARK   12  A    between atoms: _29  and  _30
REMARK   13  A    between atoms: _29  and  _32
REMARK   14  A    between atoms: _32  and  _33
REMARK   15  A    between atoms: _36  and  _38
REMARK   16  A    between atoms: _38  and  _39
REMARK   17  A    between atoms: _38  and  _41
REMARK   18  A    between atoms: _41  and  _42
REMARK   19  A    between atoms: _45  and  _47
REMARK   20  A    between atoms: _47  and  _48
REMARK   21  A    between atoms: _47  and  _50
REMARK   22  A    between atoms: _50  and  _51
REMARK   23  A    between atoms: _54  and  _56
REMARK   24  A    between atoms: _56  and  _57
REMARK   25  A    between atoms: _59  and  _61
REMARK   26  A    between atoms: _61  and  _62
REMARK   27  A    between atoms: _65  and  _67
REMARK   28  A    between atoms: _67  and  _68
REMARK   29  A    between atoms: _67  and  _70
REMARK   30  A    between atoms: _70  and  _71
REMARK   31  A    between atoms: _74  and  _76
REMARK   32  A    between atoms: _76  and  _77
REMARK   33  A    between atoms: _76  and  _79
REMARK   34  A    between atoms: _79  and  _80
REMARK   35  A    between atoms: _83  and  _85
REMARK   36  A    between atoms: _85  and  _86
REMARK   37  A    between atoms: _85  and  _88
REMARK   38  A    between atoms: _88  and  _89
REMARK   39  A    between atoms: _92  and  _94
REMARK   40  A    between atoms: _94  and  _95
REMARK   41  A    between atoms: _94  and  _97
REMARK   42  A    between atoms: _100  and  _102
REMARK   43  A    between atoms: _102  and  _103
REMARK   44  A    between atoms: _102  and  _105
REMARK   45  A    between atoms: _105  and  _106
REMARK   46  A    between atoms: _109  and  _111
REMARK   47  A    between atoms: _111  and  _112
REMARK   48  A    between atoms: _114  and  _116
REMARK   49  A    between atoms: _116  and  _117
REMARK   50  A    between atoms: _119  and  _121
REMARK   51  A    between atoms: _121  and  _122
REMARK   52  A    between atoms: _121  and  _124
REMARK   53  A    between atoms: _124  and  _125
REMARK   54  A    between atoms: _128  and  _130
REMARK   55  A    between atoms: _130  and  _131
REMARK   56  A    between atoms: _133  and  _135
REMARK   57  A    between atoms: _135  and  _136
REMARK   58  A    between atoms: _138  and  _140
REMARK   59  A    between atoms: _140  and  _141
REMARK   60  A    between atoms: _140  and  _143
REMARK   61  A    between atoms: _143  and  _144
REMARK   62  A    between atoms: _150  and  _152
REMARK   63  A    between atoms: _152  and  _153
REMARK   64  A    between atoms: _152  and  _155
REMARK   65  A    between atoms: _155  and  _156
REMARK   66  A    between atoms: _159  and  _161
REMARK   67  A    between atoms: _161  and  _162
REMARK   68  A    between atoms: _161  and  _164
REMARK   69  A    between atoms: _164  and  _165
REMARK   70  A    between atoms: _169  and  _170
REMARK   71  A    between atoms: _175  and  _177
REMARK   72  A    between atoms: _177  and  _178
REMARK   73  A    between atoms: _177  and  _180
REMARK   74  A    between atoms: _180  and  _181
REMARK   75  A    between atoms: _185  and  _186
REMARK   76  A    between atoms: _191  and  _193
REMARK   77  A    between atoms: _193  and  _194
REMARK   78  A    between atoms: _193  and  _196
REMARK   79  A    between atoms: _199  and  _201
REMARK   80  A    between atoms: _201  and  _202
REMARK   81  A    between atoms: _201  and  _204
REMARK   82  A    between atoms: _204  and  _205
REMARK   83  A    between atoms: _210  and  _212
REMARK   84  A    between atoms: _212  and  _213
REMARK   85  A    between atoms: _212  and  _215
REMARK   86  A    between atoms: _215  and  _216
REMARK   87  A    between atoms: _219  and  _221
REMARK   88  A    between atoms: _221  and  _222
REMARK   89  A    between atoms: _221  and  _224
REMARK   90  A    between atoms: _224  and  _225
REMARK   91  A    between atoms: _228  and  _230
REMARK   92  A    between atoms: _230  and  _231
REMARK   93  A    between atoms: _233  and  _235
REMARK   94  A    between atoms: _235  and  _236
REMARK   95  A    between atoms: _235  and  _238
REMARK   96  A    between atoms: _238  and  _239
REMARK   97  A    between atoms: _239  and  _240
REMARK   98  A    between atoms: _240  and  _241
REMARK   99  A    between atoms: _250  and  _252
REMARK  100  A    between atoms: _252  and  _253
REMARK  101  A    between atoms: _252  and  _255
REMARK  102  A    between atoms: _255  and  _256
REMARK  103  A    between atoms: _256  and  _257
REMARK  104  A    between atoms: _257  and  _258
REMARK  105  A    between atoms: _267  and  _269
REMARK  106  A    between atoms: _269  and  _270
REMARK  107  A    between atoms: _269  and  _272
REMARK  108  A    between atoms: _272  and  _273
REMARK  109  A    between atoms: _276  and  _278
REMARK  110  A    between atoms: _278  and  _279
REMARK  111  A    between atoms: _278  and  _281
REMARK  112  A    between atoms: _281  and  _282
REMARK  113  A    between atoms: _285  and  _287
REMARK  114  A    between atoms: _287  and  _288
REMARK  115  A    between atoms: _287  and  _290
REMARK  116  A    between atoms: _290  and  _291
REMARK  117  A    between atoms: _294  and  _296
REMARK  118  A    between atoms: _296  and  _297
REMARK  119  A    between atoms: _296  and  _299
REMARK  120  A    between atoms: _299  and  _300
REMARK  121  A    between atoms: _303  and  _305
REMARK  122  A    between atoms: _305  and  _306
REMARK  123  A    between atoms: _308  and  _310
REMARK  124  A    between atoms: _310  and  _311
REMARK  125  A    between atoms: _314  and  _316
REMARK  126  A    between atoms: _316  and  _317
REMARK  127  A    between atoms: _316  and  _319
REMARK  128  A    between atoms: _319  and  _320
REMARK  129  A    between atoms: _323  and  _325
REMARK  130  A    between atoms: _325  and  _326
REMARK  131  A    between atoms: _325  and  _328
REMARK  132  A    between atoms: _328  and  _329
REMARK  133  A    between atoms: _332  and  _334
REMARK  134  A    between atoms: _334  and  _335
REMARK  135  A    between atoms: _334  and  _337
REMARK  136  A    between atoms: _337  and  _338
REMARK  137  A    between atoms: _341  and  _343
REMARK  138  A    between atoms: _343  and  _344
REMARK  139  A    between atoms: _343  and  _346
REMARK  140  A    between atoms: _349  and  _351
REMARK  141  A    between atoms: _351  and  _352
REMARK  142  A    between atoms: _351  and  _354
REMARK  143  A    between atoms: _354  and  _355
REMARK  144  A    between atoms: _355  and  _356
REMARK  145  A    between atoms: _356  and  _357
REMARK  146  A    between atoms: _357  and  _358
REMARK  147  A    between atoms: _362  and  _364
REMARK  148  A    between atoms: _364  and  _365
REMARK  149  A    between atoms: _364  and  _367
REMARK  150  A    between atoms: _367  and  _368
REMARK  151  A    between atoms: _368  and  _369
REMARK  152  A    between atoms: _371  and  _373
REMARK  153  A    between atoms: _373  and  _374
REMARK  154  A    between atoms: _373  and  _376
REMARK  155  A    between atoms: _376  and  _377
REMARK  156  A    between atoms: _380  and  _382
REMARK  157  A    between atoms: _382  and  _383
REMARK  158  A    between atoms: _385  and  _387
REMARK  159  A    between atoms: _387  and  _388
REMARK  160  A    between atoms: _390  and  _392
REMARK  161  A    between atoms: _392  and  _393
REMARK  162  A    between atoms: _392  and  _395
REMARK  163  A    between atoms: _395  and  _396
REMARK  164  A    between atoms: _399  and  _401
REMARK  165  A    between atoms: _401  and  _402
REMARK  166  A    between atoms: _404  and  _406
REMARK  167  A    between atoms: _406  and  _407
REMARK  168  A    between atoms: _409  and  _411
REMARK  169  A    between atoms: _411  and  _412
REMARK  170  A    between atoms: _411  and  _414
REMARK  171  A    between atoms: _414  and  _415
REMARK  172  A    between atoms: _421  and  _423
REMARK  173  A    between atoms: _423  and  _424
REMARK  174  A    between atoms: _423  and  _426
REMARK  175  A    between atoms: _426  and  _427
REMARK  176  A    between atoms: _430  and  _432
REMARK  177  A    between atoms: _432  and  _433
REMARK  178  A    between atoms: _432  and  _435
REMARK  179  A    between atoms: _438  and  _440
REMARK  180  A    between atoms: _440  and  _441
REMARK  181  A    between atoms: _440  and  _443
REMARK  182  A    between atoms: _443  and  _444
REMARK  183  A    between atoms: _448  and  _449
REMARK  184  A    between atoms: _454  and  _456
REMARK  185  A    between atoms: _456  and  _457
REMARK  186  A    between atoms: _456  and  _459
REMARK  187  A    between atoms: _459  and  _460
REMARK  188  A    between atoms: _464  and  _465
REMARK  189  A    between atoms: _470  and  _472
REMARK  190  A    between atoms: _472  and  _473
REMARK  191  A    between atoms: _472  and  _475
REMARK  192  A    between atoms: _478  and  _480
REMARK  193  A    between atoms: _480  and  _481
REMARK  194  A    between atoms: _480  and  _483
REMARK  195  A    between atoms: _483  and  _484
REMARK  196  A    between atoms: _489  and  _491
REMARK  197  A    between atoms: _491  and  _492
REMARK  198  A    between atoms: _491  and  _494
REMARK  199  A    between atoms: _494  and  _495
REMARK  200  A    between atoms: _498  and  _500
REMARK  201  A    between atoms: _500  and  _501
REMARK  202  A    between atoms: _500  and  _503
REMARK  203  A    between atoms: _503  and  _504
REMARK  204  A    between atoms: _507  and  _509
REMARK  205  A    between atoms: _509  and  _510
REMARK  206  A    between atoms: _512  and  _514
REMARK  207  A    between atoms: _514  and  _515
REMARK  208  A    between atoms: _514  and  _517
REMARK  209  A    between atoms: _517  and  _518
REMARK  210  A    between atoms: _518  and  _519
REMARK  211  A    between atoms: _519  and  _520
REMARK  212  A    between atoms: _529  and  _531
REMARK  213  A    between atoms: _531  and  _532
REMARK  214  A    between atoms: _531  and  _534
REMARK  215  A    between atoms: _534  and  _535
REMARK                            x       y       z     vdW  Elec       q    Type
REMARK                         _______ _______ _______ _____ _____    ______ ____
ROOT
ATOM      1  O   HOH     1      20.228  21.690  15.552  0.00  0.00    +0.000 OA
ENDROOT
TORSDOF 0
REMARK  Name = ../refined-set-2016/2qi5/2qi5_pocket.pdb
REMARK  215 active torsions:
REMARK  status: ('A' for Active; 'I' for Inactive)
REMARK    1  A    between atoms: _1  and  _3
REMARK    2  A    between atoms: _3  and  _4
REMARK    3  A    between atoms: _3  and  _6
REMARK    4  A    between atoms: _6  and  _7
REMARK    5  A    between atoms: _7  and  _8
REMARK    6  A    between atoms: _8  and  _9
REMARK    7  A    between atoms: _18  and  _20
REMARK    8  A    between atoms: _20  and  _21
REMARK    9  A    between atoms: _20  and  _23
REMARK   10  A    between atoms: _23  and  _24
REMARK   11  A    between atoms: _27  and  _29
REMARK   12  A    between atoms: _29  and  _30
REMARK   13  A    between atoms: _29  and  _32
REMARK   14  A    between atoms: _32  and  _33
REMARK   15  A    between atoms: _36  and  _38
REMARK   16  A    between atoms: _38  and  _39
REMARK   17  A    between atoms: _38  and  _41
REMARK   18  A    between atoms: _41  and  _42
REMARK   19  A    between atoms: _45  and  _47
REMARK   20  A    between atoms: _47  and  _48
REMARK   21  A    between atoms: _47  and  _50
REMARK   22  A    between atoms: _50  and  _51
REMARK   23  A    between atoms: _54  and  _56
REMARK   24  A    between atoms: _56  and  _57
REMARK   25  A    between atoms: _59  and  _61
REMARK   26  A    between atoms: _61  and  _62
REMARK   27  A    between atoms: _65  and  _67
REMARK   28  A    between atoms: _67  and  _68
REMARK   29  A    between atoms: _67  and  _70
REMARK   30  A    between atoms: _70  and  _71
REMARK   31  A    between atoms: _74  and  _76
REMARK   32  A    between atoms: _76  and  _77
REMARK   33  A    between atoms: _76  and  _79
REMARK   34  A    between atoms: _79  and  _80
REMARK   35  A    between atoms: _83  and  _85
REMARK   36  A    between atoms: _85  and  _86
REMARK   37  A    between atoms: _85  and  _88
REMARK   38  A    between atoms: _88  and  _89
REMARK   39  A    between atoms: _92  and  _94
REMARK   40  A    between atoms: _94  and  _95
REMARK   41  A    between atoms: _94  and  _97
REMARK   42  A    between atoms: _100  and  _102
REMARK   43  A    between atoms: _102  and  _103
REMARK   44  A    between atoms: _102  and  _105
REMARK   45  A    between atoms: _105  and  _106
REMARK   46  A    between atoms: _109  and  _111
REMARK   47  A    between atoms: _111  and  _112
REMARK   48  A    between atoms: _114  and  _116
REMARK   49  A    between atoms: _116  and  _117
REMARK   50  A    between atoms: _119  and  _121
REMARK   51  A    between atoms: _121  and  _122
REMARK   52  A    between atoms: _121  and  _124
REMARK   53  A    between atoms: _124  and  _125
REMARK   54  A    between atoms: _128  and  _130
REMARK   55  A    between atoms: _130  and  _131
REMARK   56  A    between atoms: _133  and  _135
REMARK   57  A    between atoms: _135  and  _136
REMARK   58  A    between atoms: _138  and  _140
REMARK   59  A    between atoms: _140  and  _141
REMARK   60  A    between atoms: _140  and  _143
REMARK   61  A    between atoms: _143  and  _144
REMARK   62  A    between atoms: _150  and  _152
REMARK   63  A    between atoms: _152  and  _153
REMARK   64  A    between atoms: _152  and  _155
REMARK   65  A    between atoms: _155  and  _156
REMARK   66  A    between atoms: _159  and  _161
REMARK   67  A    between atoms: _161  and  _162
REMARK   68  A    between atoms: _161  and  _164
REMARK   69  A    between atoms: _164  and  _165
REMARK   70  A    between atoms: _169  and  _170
REMARK   71  A    between atoms: _175  and  _177
REMARK   72  A    between atoms: _177  and  _178
REMARK   73  A    between atoms: _177  and  _180
REMARK   74  A    between atoms: _180  and  _181
REMARK   75  A    between atoms: _185  and  _186
REMARK   76  A    between atoms: _191  and  _193
REMARK   77  A    between atoms: _193  and  _194
REMARK   78  A    between atoms: _193  and  _196
REMARK   79  A    between atoms: _199  and  _201
REMARK   80  A    between atoms: _201  and  _202
REMARK   81  A    between atoms: _201  and  _204
REMARK   82  A    between atoms: _204  and  _205
REMARK   83  A    between atoms: _210  and  _212
REMARK   84  A    between atoms: _212  and  _213
REMARK   85  A    between atoms: _212  and  _215
REMARK   86  A    between atoms: _215  and  _216
REMARK   87  A    between atoms: _219  and  _221
REMARK   88  A    between atoms: _221  and  _222
REMARK   89  A    between atoms: _221  and  _224
REMARK   90  A    between atoms: _224  and  _225
REMARK   91  A    between atoms: _228  and  _230
REMARK   92  A    between atoms: _230  and  _231
REMARK   93  A    between atoms: _233  and  _235
REMARK   94  A    between atoms: _235  and  _236
REMARK   95  A    between atoms: _235  and  _238
REMARK   96  A    between atoms: _238  and  _239
REMARK   97  A    between atoms: _239  and  _240
REMARK   98  A    between atoms: _240  and  _241
REMARK   99  A    between atoms: _250  and  _252
REMARK  100  A    between atoms: _252  and  _253
REMARK  101  A    between atoms: _252  and  _255
REMARK  102  A    between atoms: _255  and  _256
REMARK  103  A    between atoms: _256  and  _257
REMARK  104  A    between atoms: _257  and  _258
REMARK  105  A    between atoms: _267  and  _269
REMARK  106  A    between atoms: _269  and  _270
REMARK  107  A    between atoms: _269  and  _272
REMARK  108  A    between atoms: _272  and  _273
REMARK  109  A    between atoms: _276  and  _278
REMARK  110  A    between atoms: _278  and  _279
REMARK  111  A    between atoms: _278  and  _281
REMARK  112  A    between atoms: _281  and  _282
REMARK  113  A    between atoms: _285  and  _287
REMARK  114  A    between atoms: _287  and  _288
REMARK  115  A    between atoms: _287  and  _290
REMARK  116  A    between atoms: _290  and  _291
REMARK  117  A    between atoms: _294  and  _296
REMARK  118  A    between atoms: _296  and  _297
REMARK  119  A    between atoms: _296  and  _299
REMARK  120  A    between atoms: _299  and  _300
REMARK  121  A    between atoms: _303  and  _305
REMARK  122  A    between atoms: _305  and  _306
REMARK  123  A    between atoms: _308  and  _310
REMARK  124  A    between atoms: _310  and  _311
REMARK  125  A    between atoms: _314  and  _316
REMARK  126  A    between atoms: _316  and  _317
REMARK  127  A    between atoms: _316  and  _319
REMARK  128  A    between atoms: _319  and  _320
REMARK  129  A    between atoms: _323  and  _325
REMARK  130  A    between atoms: _325  and  _326
REMARK  131  A    between atoms: _325  and  _328
REMARK  132  A    between atoms: _328  and  _329
REMARK  133  A    between atoms: _332  and  _334
REMARK  134  A    between atoms: _334  and  _335
REMARK  135  A    between atoms: _334  and  _337
REMARK  136  A    between atoms: _337  and  _338
REMARK  137  A    between atoms: _341  and  _343
REMARK  138  A    between atoms: _343  and  _344
REMARK  139  A    between atoms: _343  and  _346
REMARK  140  A    between atoms: _349  and  _351
REMARK  141  A    between atoms: _351  and  _352
REMARK  142  A    between atoms: _351  and  _354
REMARK  143  A    between atoms: _354  and  _355
REMARK  144  A    between atoms: _355  and  _356
REMARK  145  A    between atoms: _356  and  _357
REMARK  146  A    between atoms: _357  and  _358
REMARK  147  A    between atoms: _362  and  _364
REMARK  148  A    between atoms: _364  and  _365
REMARK  149  A    between atoms: _364  and  _367
REMARK  150  A    between atoms: _367  and  _368
REMARK  151  A    between atoms: _368  and  _369
REMARK  152  A    between atoms: _371  and  _373
REMARK  153  A    between atoms: _373  and  _374
REMARK  154  A    between atoms: _373  and  _376
REMARK  155  A    between atoms: _376  and  _377
REMARK  156  A    between atoms: _380  and  _382
REMARK  157  A    between atoms: _382  and  _383
REMARK  158  A    between atoms: _385  and  _387
REMARK  159  A    between atoms: _387  and  _388
REMARK  160  A    between atoms: _390  and  _392
REMARK  161  A    between atoms: _392  and  _393
REMARK  162  A    between atoms: _392  and  _395
REMARK  163  A    between atoms: _395  and  _396
REMARK  164  A    between atoms: _399  and  _401
REMARK  165  A    between atoms: _401  and  _402
REMARK  166  A    between atoms: _404  and  _406
REMARK  167  A    between atoms: _406  and  _407
REMARK  168  A    between atoms: _409  and  _411
REMARK  169  A    between atoms: _411  and  _412
REMARK  170  A    between atoms: _411  and  _414
REMARK  171  A    between atoms: _414  and  _415
REMARK  172  A    between atoms: _421  and  _423
REMARK  173  A    between atoms: _423  and  _424
REMARK  174  A    between atoms: _423  and  _426
REMARK  175  A    between atoms: _426  and  _427
REMARK  176  A    between atoms: _430  and  _432
REMARK  177  A    between atoms: _432  and  _433
REMARK  178  A    between atoms: _432  and  _435
REMARK  179  A    between atoms: _438  and  _440
REMARK  180  A    between atoms: _440  and  _441
REMARK  181  A    between atoms: _440  and  _443
REMARK  182  A    between atoms: _443  and  _444
REMARK  183  A    between atoms: _448  and  _449
REMARK  184  A    between atoms: _454  and  _456
REMARK  185  A    between atoms: _456  and  _457
REMARK  186  A    between atoms: _456  and  _459
REMARK  187  A    between atoms: _459  and  _460
REMARK  188  A    between atoms: _464  and  _465
REMARK  189  A    between atoms: _470  and  _472
REMARK  190  A    between atoms: _472  and  _473
REMARK  191  A    between atoms: _472  and  _475
REMARK  192  A    between atoms: _478  and  _480
REMARK  193  A    between atoms: _480  and  _481
REMARK  194  A    between atoms: _480  and  _483
REMARK  195  A    between atoms: _483  and  _484
REMARK  196  A    between atoms: _489  and  _491
REMARK  197  A    between atoms: _491  and  _492
REMARK  198  A    between atoms: _491  and  _494
REMARK  199  A    between atoms: _494  and  _495
REMARK  200  A    between atoms: _498  and  _500
REMARK  201  A    between atoms: _500  and  _501
REMARK  202  A    between atoms: _500  and  _503
REMARK  203  A    between atoms: _503  and  _504
REMARK  204  A    between atoms: _507  and  _509
REMARK  205  A    between atoms: _509  and  _510
REMARK  206  A    between atoms: _512  and  _514
REMARK  207  A    between atoms: _514  and  _515
REMARK  208  A    between atoms: _514  and  _517
REMARK  209  A    between atoms: _517  and  _518
REMARK  210  A    between atoms: _518  and  _519
REMARK  211  A    between atoms: _519  and  _520
REMARK  212  A    between atoms: _529  and  _531
REMARK  213  A    between atoms: _531  and  _532
REMARK  214  A    between atoms: _531  and  _534
REMARK  215  A    between atoms: _534  and  _535
REMARK                            x       y       z     vdW  Elec       q    Type
REMARK                         _______ _______ _______ _____ _____    ______ ____
ROOT
ATOM      1  O   HOH     1      19.697  23.014  13.270  0.00  0.00    +0.000 OA
ENDROOT
TORSDOF 0
REMARK  Name = ../refined-set-2016/2qi5/2qi5_pocket.pdb
REMARK  215 active torsions:
REMARK  status: ('A' for Active; 'I' for Inactive)
REMARK    1  A    between atoms: _1  and  _3
REMARK    2  A    between atoms: _3  and  _4
REMARK    3  A    between atoms: _3  and  _6
REMARK    4  A    between atoms: _6  and  _7
REMARK    5  A    between atoms: _7  and  _8
REMARK    6  A    between atoms: _8  and  _9
REMARK    7  A    between atoms: _18  and  _20
REMARK    8  A    between atoms: _20  and  _21
REMARK    9  A    between atoms: _20  and  _23
REMARK   10  A    between atoms: _23  and  _24
REMARK   11  A    between atoms: _27  and  _29
REMARK   12  A    between atoms: _29  and  _30
REMARK   13  A    between atoms: _29  and  _32
REMARK   14  A    between atoms: _32  and  _33
REMARK   15  A    between atoms: _36  and  _38
REMARK   16  A    between atoms: _38  and  _39
REMARK   17  A    between atoms: _38  and  _41
REMARK   18  A    between atoms: _41  and  _42
REMARK   19  A    between atoms: _45  and  _47
REMARK   20  A    between atoms: _47  and  _48
REMARK   21  A    between atoms: _47  and  _50
REMARK   22  A    between atoms: _50  and  _51
REMARK   23  A    between atoms: _54  and  _56
REMARK   24  A    between atoms: _56  and  _57
REMARK   25  A    between atoms: _59  and  _61
REMARK   26  A    between atoms: _61  and  _62
REMARK   27  A    between atoms: _65  and  _67
REMARK   28  A    between atoms: _67  and  _68
REMARK   29  A    between atoms: _67  and  _70
REMARK   30  A    between atoms: _70  and  _71
REMARK   31  A    between atoms: _74  and  _76
REMARK   32  A    between atoms: _76  and  _77
REMARK   33  A    between atoms: _76  and  _79
REMARK   34  A    between atoms: _79  and  _80
REMARK   35  A    between atoms: _83  and  _85
REMARK   36  A    between atoms: _85  and  _86
REMARK   37  A    between atoms: _85  and  _88
REMARK   38  A    between atoms: _88  and  _89
REMARK   39  A    between atoms: _92  and  _94
REMARK   40  A    between atoms: _94  and  _95
REMARK   41  A    between atoms: _94  and  _97
REMARK   42  A    between atoms: _100  and  _102
REMARK   43  A    between atoms: _102  and  _103
REMARK   44  A    between atoms: _102  and  _105
REMARK   45  A    between atoms: _105  and  _106
REMARK   46  A    between atoms: _109  and  _111
REMARK   47  A    between atoms: _111  and  _112
REMARK   48  A    between atoms: _114  and  _116
REMARK   49  A    between atoms: _116  and  _117
REMARK   50  A    between atoms: _119  and  _121
REMARK   51  A    between atoms: _121  and  _122
REMARK   52  A    between atoms: _121  and  _124
REMARK   53  A    between atoms: _124  and  _125
REMARK   54  A    between atoms: _128  and  _130
REMARK   55  A    between atoms: _130  and  _131
REMARK   56  A    between atoms: _133  and  _135
REMARK   57  A    between atoms: _135  and  _136
REMARK   58  A    between atoms: _138  and  _140
REMARK   59  A    between atoms: _140  and  _141
REMARK   60  A    between atoms: _140  and  _143
REMARK   61  A    between atoms: _143  and  _144
REMARK   62  A    between atoms: _150  and  _152
REMARK   63  A    between atoms: _152  and  _153
REMARK   64  A    between atoms: _152  and  _155
REMARK   65  A    between atoms: _155  and  _156
REMARK   66  A    between atoms: _159  and  _161
REMARK   67  A    between atoms: _161  and  _162
REMARK   68  A    between atoms: _161  and  _164
REMARK   69  A    between atoms: _164  and  _165
REMARK   70  A    between atoms: _169  and  _170
REMARK   71  A    between atoms: _175  and  _177
REMARK   72  A    between atoms: _177  and  _178
REMARK   73  A    between atoms: _177  and  _180
REMARK   74  A    between atoms: _180  and  _181
REMARK   75  A    between atoms: _185  and  _186
REMARK   76  A    between atoms: _191  and  _193
REMARK   77  A    between atoms: _193  and  _194
REMARK   78  A    between atoms: _193  and  _196
REMARK   79  A    between atoms: _199  and  _201
REMARK   80  A    between atoms: _201  and  _202
REMARK   81  A    between atoms: _201  and  _204
REMARK   82  A    between atoms: _204  and  _205
REMARK   83  A    between atoms: _210  and  _212
REMARK   84  A    between atoms: _212  and  _213
REMARK   85  A    between atoms: _212  and  _215
REMARK   86  A    between atoms: _215  and  _216
REMARK   87  A    between atoms: _219  and  _221
REMARK   88  A    between atoms: _221  and  _222
REMARK   89  A    between atoms: _221  and  _224
REMARK   90  A    between atoms: _224  and  _225
REMARK   91  A    between atoms: _228  and  _230
REMARK   92  A    between atoms: _230  and  _231
REMARK   93  A    between atoms: _233  and  _235
REMARK   94  A    between atoms: _235  and  _236
REMARK   95  A    between atoms: _235  and  _238
REMARK   96  A    between atoms: _238  and  _239
REMARK   97  A    between atoms: _239  and  _240
REMARK   98  A    between atoms: _240  and  _241
REMARK   99  A    between atoms: _250  and  _252
REMARK  100  A    between atoms: _252  and  _253
REMARK  101  A    between atoms: _252  and  _255
REMARK  102  A    between atoms: _255  and  _256
REMARK  103  A    between atoms: _256  and  _257
REMARK  104  A    between atoms: _257  and  _258
REMARK  105  A    between atoms: _267  and  _269
REMARK  106  A    between atoms: _269  and  _270
REMARK  107  A    between atoms: _269  and  _272
REMARK  108  A    between atoms: _272  and  _273
REMARK  109  A    between atoms: _276  and  _278
REMARK  110  A    between atoms: _278  and  _279
REMARK  111  A    between atoms: _278  and  _281
REMARK  112  A    between atoms: _281  and  _282
REMARK  113  A    between atoms: _285  and  _287
REMARK  114  A    between atoms: _287  and  _288
REMARK  115  A    between atoms: _287  and  _290
REMARK  116  A    between atoms: _290  and  _291
REMARK  117  A    between atoms: _294  and  _296
REMARK  118  A    between atoms: _296  and  _297
REMARK  119  A    between atoms: _296  and  _299
REMARK  120  A    between atoms: _299  and  _300
REMARK  121  A    between atoms: _303  and  _305
REMARK  122  A    between atoms: _305  and  _306
REMARK  123  A    between atoms: _308  and  _310
REMARK  124  A    between atoms: _310  and  _311
REMARK  125  A    between atoms: _314  and  _316
REMARK  126  A    between atoms: _316  and  _317
REMARK  127  A    between atoms: _316  and  _319
REMARK  128  A    between atoms: _319  and  _320
REMARK  129  A    between atoms: _323  and  _325
REMARK  130  A    between atoms: _325  and  _326
REMARK  131  A    between atoms: _325  and  _328
REMARK  132  A    between atoms: _328  and  _329
REMARK  133  A    between atoms: _332  and  _334
REMARK  134  A    between atoms: _334  and  _335
REMARK  135  A    between atoms: _334  and  _337
REMARK  136  A    between atoms: _337  and  _338
REMARK  137  A    between atoms: _341  and  _343
REMARK  138  A    between atoms: _343  and  _344
REMARK  139  A    between atoms: _343  and  _346
REMARK  140  A    between atoms: _349  and  _351
REMARK  141  A    between atoms: _351  and  _352
REMARK  142  A    between atoms: _351  and  _354
REMARK  143  A    between atoms: _354  and  _355
REMARK  144  A    between atoms: _355  and  _356
REMARK  145  A    between atoms: _356  and  _357
REMARK  146  A    between atoms: _357  and  _358
REMARK  147  A    between atoms: _362  and  _364
REMARK  148  A    between atoms: _364  and  _365
REMARK  149  A    between atoms: _364  and  _367
REMARK  150  A    between atoms: _367  and  _368
REMARK  151  A    between atoms: _368  and  _369
REMARK  152  A    between atoms: _371  and  _373
REMARK  153  A    between atoms: _373  and  _374
REMARK  154  A    between atoms: _373  and  _376
REMARK  155  A    between atoms: _376  and  _377
REMARK  156  A    between atoms: _380  and  _382
REMARK  157  A    between atoms: _382  and  _383
REMARK  158  A    between atoms: _385  and  _387
REMARK  159  A    between atoms: _387  and  _388
REMARK  160  A    between atoms: _390  and  _392
REMARK  161  A    between atoms: _392  and  _393
REMARK  162  A    between atoms: _392  and  _395
REMARK  163  A    between atoms: _395  and  _396
REMARK  164  A    between atoms: _399  and  _401
REMARK  165  A    between atoms: _401  and  _402
REMARK  166  A    between atoms: _404  and  _406
REMARK  167  A    between atoms: _406  and  _407
REMARK  168  A    between atoms: _409  and  _411
REMARK  169  A    between atoms: _411  and  _412
REMARK  170  A    between atoms: _411  and  _414
REMARK  171  A    between atoms: _414  and  _415
REMARK  172  A    between atoms: _421  and  _423
REMARK  173  A    between atoms: _423  and  _424
REMARK  174  A    between atoms: _423  and  _426
REMARK  175  A    between atoms: _426  and  _427
REMARK  176  A    between atoms: _430  and  _432
REMARK  177  A    between atoms: _432  and  _433
REMARK  178  A    between atoms: _432  and  _435
REMARK  179  A    between atoms: _438  and  _440
REMARK  180  A    between atoms: _440  and  _441
REMARK  181  A    between atoms: _440  and  _443
REMARK  182  A    between atoms: _443  and  _444
REMARK  183  A    between atoms: _448  and  _449
REMARK  184  A    between atoms: _454  and  _456
REMARK  185  A    between atoms: _456  and  _457
REMARK  186  A    between atoms: _456  and  _459
REMARK  187  A    between atoms: _459  and  _460
REMARK  188  A    between atoms: _464  and  _465
REMARK  189  A    between atoms: _470  and  _472
REMARK  190  A    between atoms: _472  and  _473
REMARK  191  A    between atoms: _472  and  _475
REMARK  192  A    between atoms: _478  and  _480
REMARK  193  A    between atoms: _480  and  _481
REMARK  194  A    between atoms: _480  and  _483
REMARK  195  A    between atoms: _483  and  _484
REMARK  196  A    between atoms: _489  and  _491
REMARK  197  A    between atoms: _491  and  _492
REMARK  198  A    between atoms: _491  and  _494
REMARK  199  A    between atoms: _494  and  _495
REMARK  200  A    between atoms: _498  and  _500
REMARK  201  A    between atoms: _500  and  _501
REMARK  202  A    between atoms: _500  and  _503
REMARK  203  A    between atoms: _503  and  _504
REMARK  204  A    between atoms: _507  and  _509
REMARK  205  A    between atoms: _509  and  _510
REMARK  206  A    between atoms: _512  and  _514
REMARK  207  A    between atoms: _514  and  _515
REMARK  208  A    between atoms: _514  and  _517
REMARK  209  A    between atoms: _517  and  _518
REMARK  210  A    between atoms: _518  and  _519
REMARK  211  A    between atoms: _519  and  _520
REMARK  212  A    between atoms: _529  and  _531
REMARK  213  A    between atoms: _531  and  _532
REMARK  214  A    between atoms: _531  and  _534
REMARK  215  A    between atoms: _534  and  _535
REMARK                            x       y       z     vdW  Elec       q    Type
REMARK                         _______ _______ _______ _____ _____    ______ ____
ROOT
ATOM      1  O   HOH     1      31.259  23.390  12.106  0.00  0.00    +0.000 OA
ENDROOT
TORSDOF 0
REMARK  Name = ../refined-set-2016/2qi5/2qi5_pocket.pdb
REMARK  215 active torsions:
REMARK  status: ('A' for Active; 'I' for Inactive)
REMARK    1  A    between atoms: _1  and  _3
REMARK    2  A    between atoms: _3  and  _4
REMARK    3  A    between atoms: _3  and  _6
REMARK    4  A    between atoms: _6  and  _7
REMARK    5  A    between atoms: _7  and  _8
REMARK    6  A    between atoms: _8  and  _9
REMARK    7  A    between atoms: _18  and  _20
REMARK    8  A    between atoms: _20  and  _21
REMARK    9  A    between atoms: _20  and  _23
REMARK   10  A    between atoms: _23  and  _24
REMARK   11  A    between atoms: _27  and  _29
REMARK   12  A    between atoms: _29  and  _30
REMARK   13  A    between atoms: _29  and  _32
REMARK   14  A    between atoms: _32  and  _33
REMARK   15  A    between atoms: _36  and  _38
REMARK   16  A    between atoms: _38  and  _39
REMARK   17  A    between atoms: _38  and  _41
REMARK   18  A    between atoms: _41  and  _42
REMARK   19  A    between atoms: _45  and  _47
REMARK   20  A    between atoms: _47  and  _48
REMARK   21  A    between atoms: _47  and  _50
REMARK   22  A    between atoms: _50  and  _51
REMARK   23  A    between atoms: _54  and  _56
REMARK   24  A    between atoms: _56  and  _57
REMARK   25  A    between atoms: _59  and  _61
REMARK   26  A    between atoms: _61  and  _62
REMARK   27  A    between atoms: _65  and  _67
REMARK   28  A    between atoms: _67  and  _68
REMARK   29  A    between atoms: _67  and  _70
REMARK   30  A    between atoms: _70  and  _71
REMARK   31  A    between atoms: _74  and  _76
REMARK   32  A    between atoms: _76  and  _77
REMARK   33  A    between atoms: _76  and  _79
REMARK   34  A    between atoms: _79  and  _80
REMARK   35  A    between atoms: _83  and  _85
REMARK   36  A    between atoms: _85  and  _86
REMARK   37  A    between atoms: _85  and  _88
REMARK   38  A    between atoms: _88  and  _89
REMARK   39  A    between atoms: _92  and  _94
REMARK   40  A    between atoms: _94  and  _95
REMARK   41  A    between atoms: _94  and  _97
REMARK   42  A    between atoms: _100  and  _102
REMARK   43  A    between atoms: _102  and  _103
REMARK   44  A    between atoms: _102  and  _105
REMARK   45  A    between atoms: _105  and  _106
REMARK   46  A    between atoms: _109  and  _111
REMARK   47  A    between atoms: _111  and  _112
REMARK   48  A    between atoms: _114  and  _116
REMARK   49  A    between atoms: _116  and  _117
REMARK   50  A    between atoms: _119  and  _121
REMARK   51  A    between atoms: _121  and  _122
REMARK   52  A    between atoms: _121  and  _124
REMARK   53  A    between atoms: _124  and  _125
REMARK   54  A    between atoms: _128  and  _130
REMARK   55  A    between atoms: _130  and  _131
REMARK   56  A    between atoms: _133  and  _135
REMARK   57  A    between atoms: _135  and  _136
REMARK   58  A    between atoms: _138  and  _140
REMARK   59  A    between atoms: _140  and  _141
REMARK   60  A    between atoms: _140  and  _143
REMARK   61  A    between atoms: _143  and  _144
REMARK   62  A    between atoms: _150  and  _152
REMARK   63  A    between atoms: _152  and  _153
REMARK   64  A    between atoms: _152  and  _155
REMARK   65  A    between atoms: _155  and  _156
REMARK   66  A    between atoms: _159  and  _161
REMARK   67  A    between atoms: _161  and  _162
REMARK   68  A    between atoms: _161  and  _164
REMARK   69  A    between atoms: _164  and  _165
REMARK   70  A    between atoms: _169  and  _170
REMARK   71  A    between atoms: _175  and  _177
REMARK   72  A    between atoms: _177  and  _178
REMARK   73  A    between atoms: _177  and  _180
REMARK   74  A    between atoms: _180  and  _181
REMARK   75  A    between atoms: _185  and  _186
REMARK   76  A    between atoms: _191  and  _193
REMARK   77  A    between atoms: _193  and  _194
REMARK   78  A    between atoms: _193  and  _196
REMARK   79  A    between atoms: _199  and  _201
REMARK   80  A    between atoms: _201  and  _202
REMARK   81  A    between atoms: _201  and  _204
REMARK   82  A    between atoms: _204  and  _205
REMARK   83  A    between atoms: _210  and  _212
REMARK   84  A    between atoms: _212  and  _213
REMARK   85  A    between atoms: _212  and  _215
REMARK   86  A    between atoms: _215  and  _216
REMARK   87  A    between atoms: _219  and  _221
REMARK   88  A    between atoms: _221  and  _222
REMARK   89  A    between atoms: _221  and  _224
REMARK   90  A    between atoms: _224  and  _225
REMARK   91  A    between atoms: _228  and  _230
REMARK   92  A    between atoms: _230  and  _231
REMARK   93  A    between atoms: _233  and  _235
REMARK   94  A    between atoms: _235  and  _236
REMARK   95  A    between atoms: _235  and  _238
REMARK   96  A    between atoms: _238  and  _239
REMARK   97  A    between atoms: _239  and  _240
REMARK   98  A    between atoms: _240  and  _241
REMARK   99  A    between atoms: _250  and  _252
REMARK  100  A    between atoms: _252  and  _253
REMARK  101  A    between atoms: _252  and  _255
REMARK  102  A    between atoms: _255  and  _256
REMARK  103  A    between atoms: _256  and  _257
REMARK  104  A    between atoms: _257  and  _258
REMARK  105  A    between atoms: _267  and  _269
REMARK  106  A    between atoms: _269  and  _270
REMARK  107  A    between atoms: _269  and  _272
REMARK  108  A    between atoms: _272  and  _273
REMARK  109  A    between atoms: _276  and  _278
REMARK  110  A    between atoms: _278  and  _279
REMARK  111  A    between atoms: _278  and  _281
REMARK  112  A    between atoms: _281  and  _282
REMARK  113  A    between atoms: _285  and  _287
REMARK  114  A    between atoms: _287  and  _288
REMARK  115  A    between atoms: _287  and  _290
REMARK  116  A    between atoms: _290  and  _291
REMARK  117  A    between atoms: _294  and  _296
REMARK  118  A    between atoms: _296  and  _297
REMARK  119  A    between atoms: _296  and  _299
REMARK  120  A    between atoms: _299  and  _300
REMARK  121  A    between atoms: _303  and  _305
REMARK  122  A    between atoms: _305  and  _306
REMARK  123  A    between atoms: _308  and  _310
REMARK  124  A    between atoms: _310  and  _311
REMARK  125  A    between atoms: _314  and  _316
REMARK  126  A    between atoms: _316  and  _317
REMARK  127  A    between atoms: _316  and  _319
REMARK  128  A    between atoms: _319  and  _320
REMARK  129  A    between atoms: _323  and  _325
REMARK  130  A    between atoms: _325  and  _326
REMARK  131  A    between atoms: _325  and  _328
REMARK  132  A    between atoms: _328  and  _329
REMARK  133  A    between atoms: _332  and  _334
REMARK  134  A    between atoms: _334  and  _335
REMARK  135  A    between atoms: _334  and  _337
REMARK  136  A    between atoms: _337  and  _338
REMARK  137  A    between atoms: _341  and  _343
REMARK  138  A    between atoms: _343  and  _344
REMARK  139  A    between atoms: _343  and  _346
REMARK  140  A    between atoms: _349  and  _351
REMARK  141  A    between atoms: _351  and  _352
REMARK  142  A    between atoms: _351  and  _354
REMARK  143  A    between atoms: _354  and  _355
REMARK  144  A    between atoms: _355  and  _356
REMARK  145  A    between atoms: _356  and  _357
REMARK  146  A    between atoms: _357  and  _358
REMARK  147  A    between atoms: _362  and  _364
REMARK  148  A    between atoms: _364  and  _365
REMARK  149  A    between atoms: _364  and  _367
REMARK  150  A    between atoms: _367  and  _368
REMARK  151  A    between atoms: _368  and  _369
REMARK  152  A    between atoms: _371  and  _373
REMARK  153  A    between atoms: _373  and  _374
REMARK  154  A    between atoms: _373  and  _376
REMARK  155  A    between atoms: _376  and  _377
REMARK  156  A    between atoms: _380  and  _382
REMARK  157  A    between atoms: _382  and  _383
REMARK  158  A    between atoms: _385  and  _387
REMARK  159  A    between atoms: _387  and  _388
REMARK  160  A    between atoms: _390  and  _392
REMARK  161  A    between atoms: _392  and  _393
REMARK  162  A    between atoms: _392  and  _395
REMARK  163  A    between atoms: _395  and  _396
REMARK  164  A    between atoms: _399  and  _401
REMARK  165  A    between atoms: _401  and  _402
REMARK  166  A    between atoms: _404  and  _406
REMARK  167  A    between atoms: _406  and  _407
REMARK  168  A    between atoms: _409  and  _411
REMARK  169  A    between atoms: _411  and  _412
REMARK  170  A    between atoms: _411  and  _414
REMARK  171  A    between atoms: _414  and  _415
REMARK  172  A    between atoms: _421  and  _423
REMARK  173  A    between atoms: _423  and  _424
REMARK  174  A    between atoms: _423  and  _426
REMARK  175  A    between atoms: _426  and  _427
REMARK  176  A    between atoms: _430  and  _432
REMARK  177  A    between atoms: _432  and  _433
REMARK  178  A    between atoms: _432  and  _435
REMARK  179  A    between atoms: _438  and  _440
REMARK  180  A    between atoms: _440  and  _441
REMARK  181  A    between atoms: _440  and  _443
REMARK  182  A    between atoms: _443  and  _444
REMARK  183  A    between atoms: _448  and  _449
REMARK  184  A    between atoms: _454  and  _456
REMARK  185  A    between atoms: _456  and  _457
REMARK  186  A    between atoms: _456  and  _459
REMARK  187  A    between atoms: _459  and  _460
REMARK  188  A    between atoms: _464  and  _465
REMARK  189  A    between atoms: _470  and  _472
REMARK  190  A    between atoms: _472  and  _473
REMARK  191  A    between atoms: _472  and  _475
REMARK  192  A    between atoms: _478  and  _480
REMARK  193  A    between atoms: _480  and  _481
REMARK  194  A    between atoms: _480  and  _483
REMARK  195  A    between atoms: _483  and  _484
REMARK  196  A    between atoms: _489  and  _491
REMARK  197  A    between atoms: _491  and  _492
REMARK  198  A    between atoms: _491  and  _494
REMARK  199  A    between atoms: _494  and  _495
REMARK  200  A    between atoms: _498  and  _500
REMARK  201  A    between atoms: _500  and  _501
REMARK  202  A    between atoms: _500  and  _503
REMARK  203  A    between atoms: _503  and  _504
REMARK  204  A    between atoms: _507  and  _509
REMARK  205  A    between atoms: _509  and  _510
REMARK  206  A    between atoms: _512  and  _514
REMARK  207  A    between atoms: _514  and  _515
REMARK  208  A    between atoms: _514  and  _517
REMARK  209  A    between atoms: _517  and  _518
REMARK  210  A    between atoms: _518  and  _519
REMARK  211  A    between atoms: _519  and  _520
REMARK  212  A    between atoms: _529  and  _531
REMARK  213  A    between atoms: _531  and  _532
REMARK  214  A    between atoms: _531  and  _534
REMARK  215  A    between atoms: _534  and  _535
REMARK                            x       y       z     vdW  Elec       q    Type
REMARK                         _______ _______ _______ _____ _____    ______ ____
ROOT
ATOM      1  O   HOH     1      23.380  25.504   6.169  0.00  0.00    +0.000 OA
ENDROOT
TORSDOF 0
REMARK  Name = ../refined-set-2016/2qi5/2qi5_pocket.pdb
REMARK  215 active torsions:
REMARK  status: ('A' for Active; 'I' for Inactive)
REMARK    1  A    between atoms: _1  and  _3
REMARK    2  A    between atoms: _3  and  _4
REMARK    3  A    between atoms: _3  and  _6
REMARK    4  A    between atoms: _6  and  _7
REMARK    5  A    between atoms: _7  and  _8
REMARK    6  A    between atoms: _8  and  _9
REMARK    7  A    between atoms: _18  and  _20
REMARK    8  A    between atoms: _20  and  _21
REMARK    9  A    between atoms: _20  and  _23
REMARK   10  A    between atoms: _23  and  _24
REMARK   11  A    between atoms: _27  and  _29
REMARK   12  A    between atoms: _29  and  _30
REMARK   13  A    between atoms: _29  and  _32
REMARK   14  A    between atoms: _32  and  _33
REMARK   15  A    between atoms: _36  and  _38
REMARK   16  A    between atoms: _38  and  _39
REMARK   17  A    between atoms: _38  and  _41
REMARK   18  A    between atoms: _41  and  _42
REMARK   19  A    between atoms: _45  and  _47
REMARK   20  A    between atoms: _47  and  _48
REMARK   21  A    between atoms: _47  and  _50
REMARK   22  A    between atoms: _50  and  _51
REMARK   23  A    between atoms: _54  and  _56
REMARK   24  A    between atoms: _56  and  _57
REMARK   25  A    between atoms: _59  and  _61
REMARK   26  A    between atoms: _61  and  _62
REMARK   27  A    between atoms: _65  and  _67
REMARK   28  A    between atoms: _67  and  _68
REMARK   29  A    between atoms: _67  and  _70
REMARK   30  A    between atoms: _70  and  _71
REMARK   31  A    between atoms: _74  and  _76
REMARK   32  A    between atoms: _76  and  _77
REMARK   33  A    between atoms: _76  and  _79
REMARK   34  A    between atoms: _79  and  _80
REMARK   35  A    between atoms: _83  and  _85
REMARK   36  A    between atoms: _85  and  _86
REMARK   37  A    between atoms: _85  and  _88
REMARK   38  A    between atoms: _88  and  _89
REMARK   39  A    between atoms: _92  and  _94
REMARK   40  A    between atoms: _94  and  _95
REMARK   41  A    between atoms: _94  and  _97
REMARK   42  A    between atoms: _100  and  _102
REMARK   43  A    between atoms: _102  and  _103
REMARK   44  A    between atoms: _102  and  _105
REMARK   45  A    between atoms: _105  and  _106
REMARK   46  A    between atoms: _109  and  _111
REMARK   47  A    between atoms: _111  and  _112
REMARK   48  A    between atoms: _114  and  _116
REMARK   49  A    between atoms: _116  and  _117
REMARK   50  A    between atoms: _119  and  _121
REMARK   51  A    between atoms: _121  and  _122
REMARK   52  A    between atoms: _121  and  _124
REMARK   53  A    between atoms: _124  and  _125
REMARK   54  A    between atoms: _128  and  _130
REMARK   55  A    between atoms: _130  and  _131
REMARK   56  A    between atoms: _133  and  _135
REMARK   57  A    between atoms: _135  and  _136
REMARK   58  A    between atoms: _138  and  _140
REMARK   59  A    between atoms: _140  and  _141
REMARK   60  A    between atoms: _140  and  _143
REMARK   61  A    between atoms: _143  and  _144
REMARK   62  A    between atoms: _150  and  _152
REMARK   63  A    between atoms: _152  and  _153
REMARK   64  A    between atoms: _152  and  _155
REMARK   65  A    between atoms: _155  and  _156
REMARK   66  A    between atoms: _159  and  _161
REMARK   67  A    between atoms: _161  and  _162
REMARK   68  A    between atoms: _161  and  _164
REMARK   69  A    between atoms: _164  and  _165
REMARK   70  A    between atoms: _169  and  _170
REMARK   71  A    between atoms: _175  and  _177
REMARK   72  A    between atoms: _177  and  _178
REMARK   73  A    between atoms: _177  and  _180
REMARK   74  A    between atoms: _180  and  _181
REMARK   75  A    between atoms: _185  and  _186
REMARK   76  A    between atoms: _191  and  _193
REMARK   77  A    between atoms: _193  and  _194
REMARK   78  A    between atoms: _193  and  _196
REMARK   79  A    between atoms: _199  and  _201
REMARK   80  A    between atoms: _201  and  _202
REMARK   81  A    between atoms: _201  and  _204
REMARK   82  A    between atoms: _204  and  _205
REMARK   83  A    between atoms: _210  and  _212
REMARK   84  A    between atoms: _212  and  _213
REMARK   85  A    between atoms: _212  and  _215
REMARK   86  A    between atoms: _215  and  _216
REMARK   87  A    between atoms: _219  and  _221
REMARK   88  A    between atoms: _221  and  _222
REMARK   89  A    between atoms: _221  and  _224
REMARK   90  A    between atoms: _224  and  _225
REMARK   91  A    between atoms: _228  and  _230
REMARK   92  A    between atoms: _230  and  _231
REMARK   93  A    between atoms: _233  and  _235
REMARK   94  A    between atoms: _235  and  _236
REMARK   95  A    between atoms: _235  and  _238
REMARK   96  A    between atoms: _238  and  _239
REMARK   97  A    between atoms: _239  and  _240
REMARK   98  A    between atoms: _240  and  _241
REMARK   99  A    between atoms: _250  and  _252
REMARK  100  A    between atoms: _252  and  _253
REMARK  101  A    between atoms: _252  and  _255
REMARK  102  A    between atoms: _255  and  _256
REMARK  103  A    between atoms: _256  and  _257
REMARK  104  A    between atoms: _257  and  _258
REMARK  105  A    between atoms: _267  and  _269
REMARK  106  A    between atoms: _269  and  _270
REMARK  107  A    between atoms: _269  and  _272
REMARK  108  A    between atoms: _272  and  _273
REMARK  109  A    between atoms: _276  and  _278
REMARK  110  A    between atoms: _278  and  _279
REMARK  111  A    between atoms: _278  and  _281
REMARK  112  A    between atoms: _281  and  _282
REMARK  113  A    between atoms: _285  and  _287
REMARK  114  A    between atoms: _287  and  _288
REMARK  115  A    between atoms: _287  and  _290
REMARK  116  A    between atoms: _290  and  _291
REMARK  117  A    between atoms: _294  and  _296
REMARK  118  A    between atoms: _296  and  _297
REMARK  119  A    between atoms: _296  and  _299
REMARK  120  A    between atoms: _299  and  _300
REMARK  121  A    between atoms: _303  and  _305
REMARK  122  A    between atoms: _305  and  _306
REMARK  123  A    between atoms: _308  and  _310
REMARK  124  A    between atoms: _310  and  _311
REMARK  125  A    between atoms: _314  and  _316
REMARK  126  A    between atoms: _316  and  _317
REMARK  127  A    between atoms: _316  and  _319
REMARK  128  A    between atoms: _319  and  _320
REMARK  129  A    between atoms: _323  and  _325
REMARK  130  A    between atoms: _325  and  _326
REMARK  131  A    between atoms: _325  and  _328
REMARK  132  A    between atoms: _328  and  _329
REMARK  133  A    between atoms: _332  and  _334
REMARK  134  A    between atoms: _334  and  _335
REMARK  135  A    between atoms: _334  and  _337
REMARK  136  A    between atoms: _337  and  _338
REMARK  137  A    between atoms: _341  and  _343
REMARK  138  A    between atoms: _343  and  _344
REMARK  139  A    between atoms: _343  and  _346
REMARK  140  A    between atoms: _349  and  _351
REMARK  141  A    between atoms: _351  and  _352
REMARK  142  A    between atoms: _351  and  _354
REMARK  143  A    between atoms: _354  and  _355
REMARK  144  A    between atoms: _355  and  _356
REMARK  145  A    between atoms: _356  and  _357
REMARK  146  A    between atoms: _357  and  _358
REMARK  147  A    between atoms: _362  and  _364
REMARK  148  A    between atoms: _364  and  _365
REMARK  149  A    between atoms: _364  and  _367
REMARK  150  A    between atoms: _367  and  _368
REMARK  151  A    between atoms: _368  and  _369
REMARK  152  A    between atoms: _371  and  _373
REMARK  153  A    between atoms: _373  and  _374
REMARK  154  A    between atoms: _373  and  _376
REMARK  155  A    between atoms: _376  and  _377
REMARK  156  A    between atoms: _380  and  _382
REMARK  157  A    between atoms: _382  and  _383
REMARK  158  A    between atoms: _385  and  _387
REMARK  159  A    between atoms: _387  and  _388
REMARK  160  A    between atoms: _390  and  _392
REMARK  161  A    between atoms: _392  and  _393
REMARK  162  A    between atoms: _392  and  _395
REMARK  163  A    between atoms: _395  and  _396
REMARK  164  A    between atoms: _399  and  _401
REMARK  165  A    between atoms: _401  and  _402
REMARK  166  A    between atoms: _404  and  _406
REMARK  167  A    between atoms: _406  and  _407
REMARK  168  A    between atoms: _409  and  _411
REMARK  169  A    between atoms: _411  and  _412
REMARK  170  A    between atoms: _411  and  _414
REMARK  171  A    between atoms: _414  and  _415
REMARK  172  A    between atoms: _421  and  _423
REMARK  173  A    between atoms: _423  and  _424
REMARK  174  A    between atoms: _423  and  _426
REMARK  175  A    between atoms: _426  and  _427
REMARK  176  A    between atoms: _430  and  _432
REMARK  177  A    between atoms: _432  and  _433
REMARK  178  A    between atoms: _432  and  _435
REMARK  179  A    between atoms: _438  and  _440
REMARK  180  A    between atoms: _440  and  _441
REMARK  181  A    between atoms: _440  and  _443
REMARK  182  A    between atoms: _443  and  _444
REMARK  183  A    between atoms: _448  and  _449
REMARK  184  A    between atoms: _454  and  _456
REMARK  185  A    between atoms: _456  and  _457
REMARK  186  A    between atoms: _456  and  _459
REMARK  187  A    between atoms: _459  and  _460
REMARK  188  A    between atoms: _464  and  _465
REMARK  189  A    between atoms: _470  and  _472
REMARK  190  A    between atoms: _472  and  _473
REMARK  191  A    between atoms: _472  and  _475
REMARK  192  A    between atoms: _478  and  _480
REMARK  193  A    between atoms: _480  and  _481
REMARK  194  A    between atoms: _480  and  _483
REMARK  195  A    between atoms: _483  and  _484
REMARK  196  A    between atoms: _489  and  _491
REMARK  197  A    between atoms: _491  and  _492
REMARK  198  A    between atoms: _491  and  _494
REMARK  199  A    between atoms: _494  and  _495
REMARK  200  A    between atoms: _498  and  _500
REMARK  201  A    between atoms: _500  and  _501
REMARK  202  A    between atoms: _500  and  _503
REMARK  203  A    between atoms: _503  and  _504
REMARK  204  A    between atoms: _507  and  _509
REMARK  205  A    between atoms: _509  and  _510
REMARK  206  A    between atoms: _512  and  _514
REMARK  207  A    between atoms: _514  and  _515
REMARK  208  A    between atoms: _514  and  _517
REMARK  209  A    between atoms: _517  and  _518
REMARK  210  A    between atoms: _518  and  _519
REMARK  211  A    between atoms: _519  and  _520
REMARK  212  A    between atoms: _529  and  _531
REMARK  213  A    between atoms: _531  and  _532
REMARK  214  A    between atoms: _531  and  _534
REMARK  215  A    between atoms: _534  and  _535
REMARK                            x       y       z     vdW  Elec       q    Type
REMARK                         _______ _______ _______ _____ _____    ______ ____
ROOT
ATOM      1  O   HOH     1      23.741  21.730   8.104  0.00  0.00    +0.000 OA
ENDROOT
TORSDOF 0
REMARK  Name = ../refined-set-2016/2qi5/2qi5_pocket.pdb
REMARK  215 active torsions:
REMARK  status: ('A' for Active; 'I' for Inactive)
REMARK    1  A    between atoms: _1  and  _3
REMARK    2  A    between atoms: _3  and  _4
REMARK    3  A    between atoms: _3  and  _6
REMARK    4  A    between atoms: _6  and  _7
REMARK    5  A    between atoms: _7  and  _8
REMARK    6  A    between atoms: _8  and  _9
REMARK    7  A    between atoms: _18  and  _20
REMARK    8  A    between atoms: _20  and  _21
REMARK    9  A    between atoms: _20  and  _23
REMARK   10  A    between atoms: _23  and  _24
REMARK   11  A    between atoms: _27  and  _29
REMARK   12  A    between atoms: _29  and  _30
REMARK   13  A    between atoms: _29  and  _32
REMARK   14  A    between atoms: _32  and  _33
REMARK   15  A    between atoms: _36  and  _38
REMARK   16  A    between atoms: _38  and  _39
REMARK   17  A    between atoms: _38  and  _41
REMARK   18  A    between atoms: _41  and  _42
REMARK   19  A    between atoms: _45  and  _47
REMARK   20  A    between atoms: _47  and  _48
REMARK   21  A    between atoms: _47  and  _50
REMARK   22  A    between atoms: _50  and  _51
REMARK   23  A    between atoms: _54  and  _56
REMARK   24  A    between atoms: _56  and  _57
REMARK   25  A    between atoms: _59  and  _61
REMARK   26  A    between atoms: _61  and  _62
REMARK   27  A    between atoms: _65  and  _67
REMARK   28  A    between atoms: _67  and  _68
REMARK   29  A    between atoms: _67  and  _70
REMARK   30  A    between atoms: _70  and  _71
REMARK   31  A    between atoms: _74  and  _76
REMARK   32  A    between atoms: _76  and  _77
REMARK   33  A    between atoms: _76  and  _79
REMARK   34  A    between atoms: _79  and  _80
REMARK   35  A    between atoms: _83  and  _85
REMARK   36  A    between atoms: _85  and  _86
REMARK   37  A    between atoms: _85  and  _88
REMARK   38  A    between atoms: _88  and  _89
REMARK   39  A    between atoms: _92  and  _94
REMARK   40  A    between atoms: _94  and  _95
REMARK   41  A    between atoms: _94  and  _97
REMARK   42  A    between atoms: _100  and  _102
REMARK   43  A    between atoms: _102  and  _103
REMARK   44  A    between atoms: _102  and  _105
REMARK   45  A    between atoms: _105  and  _106
REMARK   46  A    between atoms: _109  and  _111
REMARK   47  A    between atoms: _111  and  _112
REMARK   48  A    between atoms: _114  and  _116
REMARK   49  A    between atoms: _116  and  _117
REMARK   50  A    between atoms: _119  and  _121
REMARK   51  A    between atoms: _121  and  _122
REMARK   52  A    between atoms: _121  and  _124
REMARK   53  A    between atoms: _124  and  _125
REMARK   54  A    between atoms: _128  and  _130
REMARK   55  A    between atoms: _130  and  _131
REMARK   56  A    between atoms: _133  and  _135
REMARK   57  A    between atoms: _135  and  _136
REMARK   58  A    between atoms: _138  and  _140
REMARK   59  A    between atoms: _140  and  _141
REMARK   60  A    between atoms: _140  and  _143
REMARK   61  A    between atoms: _143  and  _144
REMARK   62  A    between atoms: _150  and  _152
REMARK   63  A    between atoms: _152  and  _153
REMARK   64  A    between atoms: _152  and  _155
REMARK   65  A    between atoms: _155  and  _156
REMARK   66  A    between atoms: _159  and  _161
REMARK   67  A    between atoms: _161  and  _162
REMARK   68  A    between atoms: _161  and  _164
REMARK   69  A    between atoms: _164  and  _165
REMARK   70  A    between atoms: _169  and  _170
REMARK   71  A    between atoms: _175  and  _177
REMARK   72  A    between atoms: _177  and  _178
REMARK   73  A    between atoms: _177  and  _180
REMARK   74  A    between atoms: _180  and  _181
REMARK   75  A    between atoms: _185  and  _186
REMARK   76  A    between atoms: _191  and  _193
REMARK   77  A    between atoms: _193  and  _194
REMARK   78  A    between atoms: _193  and  _196
REMARK   79  A    between atoms: _199  and  _201
REMARK   80  A    between atoms: _201  and  _202
REMARK   81  A    between atoms: _201  and  _204
REMARK   82  A    between atoms: _204  and  _205
REMARK   83  A    between atoms: _210  and  _212
REMARK   84  A    between atoms: _212  and  _213
REMARK   85  A    between atoms: _212  and  _215
REMARK   86  A    between atoms: _215  and  _216
REMARK   87  A    between atoms: _219  and  _221
REMARK   88  A    between atoms: _221  and  _222
REMARK   89  A    between atoms: _221  and  _224
REMARK   90  A    between atoms: _224  and  _225
REMARK   91  A    between atoms: _228  and  _230
REMARK   92  A    between atoms: _230  and  _231
REMARK   93  A    between atoms: _233  and  _235
REMARK   94  A    between atoms: _235  and  _236
REMARK   95  A    between atoms: _235  and  _238
REMARK   96  A    between atoms: _238  and  _239
REMARK   97  A    between atoms: _239  and  _240
REMARK   98  A    between atoms: _240  and  _241
REMARK   99  A    between atoms: _250  and  _252
REMARK  100  A    between atoms: _252  and  _253
REMARK  101  A    between atoms: _252  and  _255
REMARK  102  A    between atoms: _255  and  _256
REMARK  103  A    between atoms: _256  and  _257
REMARK  104  A    between atoms: _257  and  _258
REMARK  105  A    between atoms: _267  and  _269
REMARK  106  A    between atoms: _269  and  _270
REMARK  107  A    between atoms: _269  and  _272
REMARK  108  A    between atoms: _272  and  _273
REMARK  109  A    between atoms: _276  and  _278
REMARK  110  A    between atoms: _278  and  _279
REMARK  111  A    between atoms: _278  and  _281
REMARK  112  A    between atoms: _281  and  _282
REMARK  113  A    between atoms: _285  and  _287
REMARK  114  A    between atoms: _287  and  _288
REMARK  115  A    between atoms: _287  and  _290
REMARK  116  A    between atoms: _290  and  _291
REMARK  117  A    between atoms: _294  and  _296
REMARK  118  A    between atoms: _296  and  _297
REMARK  119  A    between atoms: _296  and  _299
REMARK  120  A    between atoms: _299  and  _300
REMARK  121  A    between atoms: _303  and  _305
REMARK  122  A    between atoms: _305  and  _306
REMARK  123  A    between atoms: _308  and  _310
REMARK  124  A    between atoms: _310  and  _311
REMARK  125  A    between atoms: _314  and  _316
REMARK  126  A    between atoms: _316  and  _317
REMARK  127  A    between atoms: _316  and  _319
REMARK  128  A    between atoms: _319  and  _320
REMARK  129  A    between atoms: _323  and  _325
REMARK  130  A    between atoms: _325  and  _326
REMARK  131  A    between atoms: _325  and  _328
REMARK  132  A    between atoms: _328  and  _329
REMARK  133  A    between atoms: _332  and  _334
REMARK  134  A    between atoms: _334  and  _335
REMARK  135  A    between atoms: _334  and  _337
REMARK  136  A    between atoms: _337  and  _338
REMARK  137  A    between atoms: _341  and  _343
REMARK  138  A    between atoms: _343  and  _344
REMARK  139  A    between atoms: _343  and  _346
REMARK  140  A    between atoms: _349  and  _351
REMARK  141  A    between atoms: _351  and  _352
REMARK  142  A    between atoms: _351  and  _354
REMARK  143  A    between atoms: _354  and  _355
REMARK  144  A    between atoms: _355  and  _356
REMARK  145  A    between atoms: _356  and  _357
REMARK  146  A    between atoms: _357  and  _358
REMARK  147  A    between atoms: _362  and  _364
REMARK  148  A    between atoms: _364  and  _365
REMARK  149  A    between atoms: _364  and  _367
REMARK  150  A    between atoms: _367  and  _368
REMARK  151  A    between atoms: _368  and  _369
REMARK  152  A    between atoms: _371  and  _373
REMARK  153  A    between atoms: _373  and  _374
REMARK  154  A    between atoms: _373  and  _376
REMARK  155  A    between atoms: _376  and  _377
REMARK  156  A    between atoms: _380  and  _382
REMARK  157  A    between atoms: _382  and  _383
REMARK  158  A    between atoms: _385  and  _387
REMARK  159  A    between atoms: _387  and  _388
REMARK  160  A    between atoms: _390  and  _392
REMARK  161  A    between atoms: _392  and  _393
REMARK  162  A    between atoms: _392  and  _395
REMARK  163  A    between atoms: _395  and  _396
REMARK  164  A    between atoms: _399  and  _401
REMARK  165  A    between atoms: _401  and  _402
REMARK  166  A    between atoms: _404  and  _406
REMARK  167  A    between atoms: _406  and  _407
REMARK  168  A    between atoms: _409  and  _411
REMARK  169  A    between atoms: _411  and  _412
REMARK  170  A    between atoms: _411  and  _414
REMARK  171  A    between atoms: _414  and  _415
REMARK  172  A    between atoms: _421  and  _423
REMARK  173  A    between atoms: _423  and  _424
REMARK  174  A    between atoms: _423  and  _426
REMARK  175  A    between atoms: _426  and  _427
REMARK  176  A    between atoms: _430  and  _432
REMARK  177  A    between atoms: _432  and  _433
REMARK  178  A    between atoms: _432  and  _435
REMARK  179  A    between atoms: _438  and  _440
REMARK  180  A    between atoms: _440  and  _441
REMARK  181  A    between atoms: _440  and  _443
REMARK  182  A    between atoms: _443  and  _444
REMARK  183  A    between atoms: _448  and  _449
REMARK  184  A    between atoms: _454  and  _456
REMARK  185  A    between atoms: _456  and  _457
REMARK  186  A    between atoms: _456  and  _459
REMARK  187  A    between atoms: _459  and  _460
REMARK  188  A    between atoms: _464  and  _465
REMARK  189  A    between atoms: _470  and  _472
REMARK  190  A    between atoms: _472  and  _473
REMARK  191  A    between atoms: _472  and  _475
REMARK  192  A    between atoms: _478  and  _480
REMARK  193  A    between atoms: _480  and  _481
REMARK  194  A    between atoms: _480  and  _483
REMARK  195  A    between atoms: _483  and  _484
REMARK  196  A    between atoms: _489  and  _491
REMARK  197  A    between atoms: _491  and  _492
REMARK  198  A    between atoms: _491  and  _494
REMARK  199  A    between atoms: _494  and  _495
REMARK  200  A    between atoms: _498  and  _500
REMARK  201  A    between atoms: _500  and  _501
REMARK  202  A    between atoms: _500  and  _503
REMARK  203  A    between atoms: _503  and  _504
REMARK  204  A    between atoms: _507  and  _509
REMARK  205  A    between atoms: _509  and  _510
REMARK  206  A    between atoms: _512  and  _514
REMARK  207  A    between atoms: _514  and  _515
REMARK  208  A    between atoms: _514  and  _517
REMARK  209  A    between atoms: _517  and  _518
REMARK  210  A    between atoms: _518  and  _519
REMARK  211  A    between atoms: _519  and  _520
REMARK  212  A    between atoms: _529  and  _531
REMARK  213  A    between atoms: _531  and  _532
REMARK  214  A    between atoms: _531  and  _534
REMARK  215  A    between atoms: _534  and  _535
REMARK                            x       y       z     vdW  Elec       q    Type
REMARK                         _______ _______ _______ _____ _____    ______ ____
ROOT
ATOM      1  O   HOH     1      26.154  18.599  13.390  0.00  0.00    +0.000 OA
ENDROOT
TORSDOF 0
REMARK  Name = ../refined-set-2016/2qi5/2qi5_pocket.pdb
REMARK  215 active torsions:
REMARK  status: ('A' for Active; 'I' for Inactive)
REMARK    1  A    between atoms: _1  and  _3
REMARK    2  A    between atoms: _3  and  _4
REMARK    3  A    between atoms: _3  and  _6
REMARK    4  A    between atoms: _6  and  _7
REMARK    5  A    between atoms: _7  and  _8
REMARK    6  A    between atoms: _8  and  _9
REMARK    7  A    between atoms: _18  and  _20
REMARK    8  A    between atoms: _20  and  _21
REMARK    9  A    between atoms: _20  and  _23
REMARK   10  A    between atoms: _23  and  _24
REMARK   11  A    between atoms: _27  and  _29
REMARK   12  A    between atoms: _29  and  _30
REMARK   13  A    between atoms: _29  and  _32
REMARK   14  A    between atoms: _32  and  _33
REMARK   15  A    between atoms: _36  and  _38
REMARK   16  A    between atoms: _38  and  _39
REMARK   17  A    between atoms: _38  and  _41
REMARK   18  A    between atoms: _41  and  _42
REMARK   19  A    between atoms: _45  and  _47
REMARK   20  A    between atoms: _47  and  _48
REMARK   21  A    between atoms: _47  and  _50
REMARK   22  A    between atoms: _50  and  _51
REMARK   23  A    between atoms: _54  and  _56
REMARK   24  A    between atoms: _56  and  _57
REMARK   25  A    between atoms: _59  and  _61
REMARK   26  A    between atoms: _61  and  _62
REMARK   27  A    between atoms: _65  and  _67
REMARK   28  A    between atoms: _67  and  _68
REMARK   29  A    between atoms: _67  and  _70
REMARK   30  A    between atoms: _70  and  _71
REMARK   31  A    between atoms: _74  and  _76
REMARK   32  A    between atoms: _76  and  _77
REMARK   33  A    between atoms: _76  and  _79
REMARK   34  A    between atoms: _79  and  _80
REMARK   35  A    between atoms: _83  and  _85
REMARK   36  A    between atoms: _85  and  _86
REMARK   37  A    between atoms: _85  and  _88
REMARK   38  A    between atoms: _88  and  _89
REMARK   39  A    between atoms: _92  and  _94
REMARK   40  A    between atoms: _94  and  _95
REMARK   41  A    between atoms: _94  and  _97
REMARK   42  A    between atoms: _100  and  _102
REMARK   43  A    between atoms: _102  and  _103
REMARK   44  A    between atoms: _102  and  _105
REMARK   45  A    between atoms: _105  and  _106
REMARK   46  A    between atoms: _109  and  _111
REMARK   47  A    between atoms: _111  and  _112
REMARK   48  A    between atoms: _114  and  _116
REMARK   49  A    between atoms: _116  and  _117
REMARK   50  A    between atoms: _119  and  _121
REMARK   51  A    between atoms: _121  and  _122
REMARK   52  A    between atoms: _121  and  _124
REMARK   53  A    between atoms: _124  and  _125
REMARK   54  A    between atoms: _128  and  _130
REMARK   55  A    between atoms: _130  and  _131
REMARK   56  A    between atoms: _133  and  _135
REMARK   57  A    between atoms: _135  and  _136
REMARK   58  A    between atoms: _138  and  _140
REMARK   59  A    between atoms: _140  and  _141
REMARK   60  A    between atoms: _140  and  _143
REMARK   61  A    between atoms: _143  and  _144
REMARK   62  A    between atoms: _150  and  _152
REMARK   63  A    between atoms: _152  and  _153
REMARK   64  A    between atoms: _152  and  _155
REMARK   65  A    between atoms: _155  and  _156
REMARK   66  A    between atoms: _159  and  _161
REMARK   67  A    between atoms: _161  and  _162
REMARK   68  A    between atoms: _161  and  _164
REMARK   69  A    between atoms: _164  and  _165
REMARK   70  A    between atoms: _169  and  _170
REMARK   71  A    between atoms: _175  and  _177
REMARK   72  A    between atoms: _177  and  _178
REMARK   73  A    between atoms: _177  and  _180
REMARK   74  A    between atoms: _180  and  _181
REMARK   75  A    between atoms: _185  and  _186
REMARK   76  A    between atoms: _191  and  _193
REMARK   77  A    between atoms: _193  and  _194
REMARK   78  A    between atoms: _193  and  _196
REMARK   79  A    between atoms: _199  and  _201
REMARK   80  A    between atoms: _201  and  _202
REMARK   81  A    between atoms: _201  and  _204
REMARK   82  A    between atoms: _204  and  _205
REMARK   83  A    between atoms: _210  and  _212
REMARK   84  A    between atoms: _212  and  _213
REMARK   85  A    between atoms: _212  and  _215
REMARK   86  A    between atoms: _215  and  _216
REMARK   87  A    between atoms: _219  and  _221
REMARK   88  A    between atoms: _221  and  _222
REMARK   89  A    between atoms: _221  and  _224
REMARK   90  A    between atoms: _224  and  _225
REMARK   91  A    between atoms: _228  and  _230
REMARK   92  A    between atoms: _230  and  _231
REMARK   93  A    between atoms: _233  and  _235
REMARK   94  A    between atoms: _235  and  _236
REMARK   95  A    between atoms: _235  and  _238
REMARK   96  A    between atoms: _238  and  _239
REMARK   97  A    between atoms: _239  and  _240
REMARK   98  A    between atoms: _240  and  _241
REMARK   99  A    between atoms: _250  and  _252
REMARK  100  A    between atoms: _252  and  _253
REMARK  101  A    between atoms: _252  and  _255
REMARK  102  A    between atoms: _255  and  _256
REMARK  103  A    between atoms: _256  and  _257
REMARK  104  A    between atoms: _257  and  _258
REMARK  105  A    between atoms: _267  and  _269
REMARK  106  A    between atoms: _269  and  _270
REMARK  107  A    between atoms: _269  and  _272
REMARK  108  A    between atoms: _272  and  _273
REMARK  109  A    between atoms: _276  and  _278
REMARK  110  A    between atoms: _278  and  _279
REMARK  111  A    between atoms: _278  and  _281
REMARK  112  A    between atoms: _281  and  _282
REMARK  113  A    between atoms: _285  and  _287
REMARK  114  A    between atoms: _287  and  _288
REMARK  115  A    between atoms: _287  and  _290
REMARK  116  A    between atoms: _290  and  _291
REMARK  117  A    between atoms: _294  and  _296
REMARK  118  A    between atoms: _296  and  _297
REMARK  119  A    between atoms: _296  and  _299
REMARK  120  A    between atoms: _299  and  _300
REMARK  121  A    between atoms: _303  and  _305
REMARK  122  A    between atoms: _305  and  _306
REMARK  123  A    between atoms: _308  and  _310
REMARK  124  A    between atoms: _310  and  _311
REMARK  125  A    between atoms: _314  and  _316
REMARK  126  A    between atoms: _316  and  _317
REMARK  127  A    between atoms: _316  and  _319
REMARK  128  A    between atoms: _319  and  _320
REMARK  129  A    between atoms: _323  and  _325
REMARK  130  A    between atoms: _325  and  _326
REMARK  131  A    between atoms: _325  and  _328
REMARK  132  A    between atoms: _328  and  _329
REMARK  133  A    between atoms: _332  and  _334
REMARK  134  A    between atoms: _334  and  _335
REMARK  135  A    between atoms: _334  and  _337
REMARK  136  A    between atoms: _337  and  _338
REMARK  137  A    between atoms: _341  and  _343
REMARK  138  A    between atoms: _343  and  _344
REMARK  139  A    between atoms: _343  and  _346
REMARK  140  A    between atoms: _349  and  _351
REMARK  141  A    between atoms: _351  and  _352
REMARK  142  A    between atoms: _351  and  _354
REMARK  143  A    between atoms: _354  and  _355
REMARK  144  A    between atoms: _355  and  _356
REMARK  145  A    between atoms: _356  and  _357
REMARK  146  A    between atoms: _357  and  _358
REMARK  147  A    between atoms: _362  and  _364
REMARK  148  A    between atoms: _364  and  _365
REMARK  149  A    between atoms: _364  and  _367
REMARK  150  A    between atoms: _367  and  _368
REMARK  151  A    between atoms: _368  and  _369
REMARK  152  A    between atoms: _371  and  _373
REMARK  153  A    between atoms: _373  and  _374
REMARK  154  A    between atoms: _373  and  _376
REMARK  155  A    between atoms: _376  and  _377
REMARK  156  A    between atoms: _380  and  _382
REMARK  157  A    between atoms: _382  and  _383
REMARK  158  A    between atoms: _385  and  _387
REMARK  159  A    between atoms: _387  and  _388
REMARK  160  A    between atoms: _390  and  _392
REMARK  161  A    between atoms: _392  and  _393
REMARK  162  A    between atoms: _392  and  _395
REMARK  163  A    between atoms: _395  and  _396
REMARK  164  A    between atoms: _399  and  _401
REMARK  165  A    between atoms: _401  and  _402
REMARK  166  A    between atoms: _404  and  _406
REMARK  167  A    between atoms: _406  and  _407
REMARK  168  A    between atoms: _409  and  _411
REMARK  169  A    between atoms: _411  and  _412
REMARK  170  A    between atoms: _411  and  _414
REMARK  171  A    between atoms: _414  and  _415
REMARK  172  A    between atoms: _421  and  _423
REMARK  173  A    between atoms: _423  and  _424
REMARK  174  A    between atoms: _423  and  _426
REMARK  175  A    between atoms: _426  and  _427
REMARK  176  A    between atoms: _430  and  _432
REMARK  177  A    between atoms: _432  and  _433
REMARK  178  A    between atoms: _432  and  _435
REMARK  179  A    between atoms: _438  and  _440
REMARK  180  A    between atoms: _440  and  _441
REMARK  181  A    between atoms: _440  and  _443
REMARK  182  A    between atoms: _443  and  _444
REMARK  183  A    between atoms: _448  and  _449
REMARK  184  A    between atoms: _454  and  _456
REMARK  185  A    between atoms: _456  and  _457
REMARK  186  A    between atoms: _456  and  _459
REMARK  187  A    between atoms: _459  and  _460
REMARK  188  A    between atoms: _464  and  _465
REMARK  189  A    between atoms: _470  and  _472
REMARK  190  A    between atoms: _472  and  _473
REMARK  191  A    between atoms: _472  and  _475
REMARK  192  A    between atoms: _478  and  _480
REMARK  193  A    between atoms: _480  and  _481
REMARK  194  A    between atoms: _480  and  _483
REMARK  195  A    between atoms: _483  and  _484
REMARK  196  A    between atoms: _489  and  _491
REMARK  197  A    between atoms: _491  and  _492
REMARK  198  A    between atoms: _491  and  _494
REMARK  199  A    between atoms: _494  and  _495
REMARK  200  A    between atoms: _498  and  _500
REMARK  201  A    between atoms: _500  and  _501
REMARK  202  A    between atoms: _500  and  _503
REMARK  203  A    between atoms: _503  and  _504
REMARK  204  A    between atoms: _507  and  _509
REMARK  205  A    between atoms: _509  and  _510
REMARK  206  A    between atoms: _512  and  _514
REMARK  207  A    between atoms: _514  and  _515
REMARK  208  A    between atoms: _514  and  _517
REMARK  209  A    between atoms: _517  and  _518
REMARK  210  A    between atoms: _518  and  _519
REMARK  211  A    between atoms: _519  and  _520
REMARK  212  A    between atoms: _529  and  _531
REMARK  213  A    between atoms: _531  and  _532
REMARK  214  A    between atoms: _531  and  _534
REMARK  215  A    between atoms: _534  and  _535
REMARK                            x       y       z     vdW  Elec       q    Type
REMARK                         _______ _______ _______ _____ _____    ______ ____
ROOT
ATOM      1  O   HOH     1      24.324  24.844   8.849  0.00  0.00    +0.000 OA
ENDROOT
TORSDOF 0
REMARK  Name = ../refined-set-2016/2qi5/2qi5_pocket.pdb
REMARK  215 active torsions:
REMARK  status: ('A' for Active; 'I' for Inactive)
REMARK    1  A    between atoms: _1  and  _3
REMARK    2  A    between atoms: _3  and  _4
REMARK    3  A    between atoms: _3  and  _6
REMARK    4  A    between atoms: _6  and  _7
REMARK    5  A    between atoms: _7  and  _8
REMARK    6  A    between atoms: _8  and  _9
REMARK    7  A    between atoms: _18  and  _20
REMARK    8  A    between atoms: _20  and  _21
REMARK    9  A    between atoms: _20  and  _23
REMARK   10  A    between atoms: _23  and  _24
REMARK   11  A    between atoms: _27  and  _29
REMARK   12  A    between atoms: _29  and  _30
REMARK   13  A    between atoms: _29  and  _32
REMARK   14  A    between atoms: _32  and  _33
REMARK   15  A    between atoms: _36  and  _38
REMARK   16  A    between atoms: _38  and  _39
REMARK   17  A    between atoms: _38  and  _41
REMARK   18  A    between atoms: _41  and  _42
REMARK   19  A    between atoms: _45  and  _47
REMARK   20  A    between atoms: _47  and  _48
REMARK   21  A    between atoms: _47  and  _50
REMARK   22  A    between atoms: _50  and  _51
REMARK   23  A    between atoms: _54  and  _56
REMARK   24  A    between atoms: _56  and  _57
REMARK   25  A    between atoms: _59  and  _61
REMARK   26  A    between atoms: _61  and  _62
REMARK   27  A    between atoms: _65  and  _67
REMARK   28  A    between atoms: _67  and  _68
REMARK   29  A    between atoms: _67  and  _70
REMARK   30  A    between atoms: _70  and  _71
REMARK   31  A    between atoms: _74  and  _76
REMARK   32  A    between atoms: _76  and  _77
REMARK   33  A    between atoms: _76  and  _79
REMARK   34  A    between atoms: _79  and  _80
REMARK   35  A    between atoms: _83  and  _85
REMARK   36  A    between atoms: _85  and  _86
REMARK   37  A    between atoms: _85  and  _88
REMARK   38  A    between atoms: _88  and  _89
REMARK   39  A    between atoms: _92  and  _94
REMARK   40  A    between atoms: _94  and  _95
REMARK   41  A    between atoms: _94  and  _97
REMARK   42  A    between atoms: _100  and  _102
REMARK   43  A    between atoms: _102  and  _103
REMARK   44  A    between atoms: _102  and  _105
REMARK   45  A    between atoms: _105  and  _106
REMARK   46  A    between atoms: _109  and  _111
REMARK   47  A    between atoms: _111  and  _112
REMARK   48  A    between atoms: _114  and  _116
REMARK   49  A    between atoms: _116  and  _117
REMARK   50  A    between atoms: _119  and  _121
REMARK   51  A    between atoms: _121  and  _122
REMARK   52  A    between atoms: _121  and  _124
REMARK   53  A    between atoms: _124  and  _125
REMARK   54  A    between atoms: _128  and  _130
REMARK   55  A    between atoms: _130  and  _131
REMARK   56  A    between atoms: _133  and  _135
REMARK   57  A    between atoms: _135  and  _136
REMARK   58  A    between atoms: _138  and  _140
REMARK   59  A    between atoms: _140  and  _141
REMARK   60  A    between atoms: _140  and  _143
REMARK   61  A    between atoms: _143  and  _144
REMARK   62  A    between atoms: _150  and  _152
REMARK   63  A    between atoms: _152  and  _153
REMARK   64  A    between atoms: _152  and  _155
REMARK   65  A    between atoms: _155  and  _156
REMARK   66  A    between atoms: _159  and  _161
REMARK   67  A    between atoms: _161  and  _162
REMARK   68  A    between atoms: _161  and  _164
REMARK   69  A    between atoms: _164  and  _165
REMARK   70  A    between atoms: _169  and  _170
REMARK   71  A    between atoms: _175  and  _177
REMARK   72  A    between atoms: _177  and  _178
REMARK   73  A    between atoms: _177  and  _180
REMARK   74  A    between atoms: _180  and  _181
REMARK   75  A    between atoms: _185  and  _186
REMARK   76  A    between atoms: _191  and  _193
REMARK   77  A    between atoms: _193  and  _194
REMARK   78  A    between atoms: _193  and  _196
REMARK   79  A    between atoms: _199  and  _201
REMARK   80  A    between atoms: _201  and  _202
REMARK   81  A    between atoms: _201  and  _204
REMARK   82  A    between atoms: _204  and  _205
REMARK   83  A    between atoms: _210  and  _212
REMARK   84  A    between atoms: _212  and  _213
REMARK   85  A    between atoms: _212  and  _215
REMARK   86  A    between atoms: _215  and  _216
REMARK   87  A    between atoms: _219  and  _221
REMARK   88  A    between atoms: _221  and  _222
REMARK   89  A    between atoms: _221  and  _224
REMARK   90  A    between atoms: _224  and  _225
REMARK   91  A    between atoms: _228  and  _230
REMARK   92  A    between atoms: _230  and  _231
REMARK   93  A    between atoms: _233  and  _235
REMARK   94  A    between atoms: _235  and  _236
REMARK   95  A    between atoms: _235  and  _238
REMARK   96  A    between atoms: _238  and  _239
REMARK   97  A    between atoms: _239  and  _240
REMARK   98  A    between atoms: _240  and  _241
REMARK   99  A    between atoms: _250  and  _252
REMARK  100  A    between atoms: _252  and  _253
REMARK  101  A    between atoms: _252  and  _255
REMARK  102  A    between atoms: _255  and  _256
REMARK  103  A    between atoms: _256  and  _257
REMARK  104  A    between atoms: _257  and  _258
REMARK  105  A    between atoms: _267  and  _269
REMARK  106  A    between atoms: _269  and  _270
REMARK  107  A    between atoms: _269  and  _272
REMARK  108  A    between atoms: _272  and  _273
REMARK  109  A    between atoms: _276  and  _278
REMARK  110  A    between atoms: _278  and  _279
REMARK  111  A    between atoms: _278  and  _281
REMARK  112  A    between atoms: _281  and  _282
REMARK  113  A    between atoms: _285  and  _287
REMARK  114  A    between atoms: _287  and  _288
REMARK  115  A    between atoms: _287  and  _290
REMARK  116  A    between atoms: _290  and  _291
REMARK  117  A    between atoms: _294  and  _296
REMARK  118  A    between atoms: _296  and  _297
REMARK  119  A    between atoms: _296  and  _299
REMARK  120  A    between atoms: _299  and  _300
REMARK  121  A    between atoms: _303  and  _305
REMARK  122  A    between atoms: _305  and  _306
REMARK  123  A    between atoms: _308  and  _310
REMARK  124  A    between atoms: _310  and  _311
REMARK  125  A    between atoms: _314  and  _316
REMARK  126  A    between atoms: _316  and  _317
REMARK  127  A    between atoms: _316  and  _319
REMARK  128  A    between atoms: _319  and  _320
REMARK  129  A    between atoms: _323  and  _325
REMARK  130  A    between atoms: _325  and  _326
REMARK  131  A    between atoms: _325  and  _328
REMARK  132  A    between atoms: _328  and  _329
REMARK  133  A    between atoms: _332  and  _334
REMARK  134  A    between atoms: _334  and  _335
REMARK  135  A    between atoms: _334  and  _337
REMARK  136  A    between atoms: _337  and  _338
REMARK  137  A    between atoms: _341  and  _343
REMARK  138  A    between atoms: _343  and  _344
REMARK  139  A    between atoms: _343  and  _346
REMARK  140  A    between atoms: _349  and  _351
REMARK  141  A    between atoms: _351  and  _352
REMARK  142  A    between atoms: _351  and  _354
REMARK  143  A    between atoms: _354  and  _355
REMARK  144  A    between atoms: _355  and  _356
REMARK  145  A    between atoms: _356  and  _357
REMARK  146  A    between atoms: _357  and  _358
REMARK  147  A    between atoms: _362  and  _364
REMARK  148  A    between atoms: _364  and  _365
REMARK  149  A    between atoms: _364  and  _367
REMARK  150  A    between atoms: _367  and  _368
REMARK  151  A    between atoms: _368  and  _369
REMARK  152  A    between atoms: _371  and  _373
REMARK  153  A    between atoms: _373  and  _374
REMARK  154  A    between atoms: _373  and  _376
REMARK  155  A    between atoms: _376  and  _377
REMARK  156  A    between atoms: _380  and  _382
REMARK  157  A    between atoms: _382  and  _383
REMARK  158  A    between atoms: _385  and  _387
REMARK  159  A    between atoms: _387  and  _388
REMARK  160  A    between atoms: _390  and  _392
REMARK  161  A    between atoms: _392  and  _393
REMARK  162  A    between atoms: _392  and  _395
REMARK  163  A    between atoms: _395  and  _396
REMARK  164  A    between atoms: _399  and  _401
REMARK  165  A    between atoms: _401  and  _402
REMARK  166  A    between atoms: _404  and  _406
REMARK  167  A    between atoms: _406  and  _407
REMARK  168  A    between atoms: _409  and  _411
REMARK  169  A    between atoms: _411  and  _412
REMARK  170  A    between atoms: _411  and  _414
REMARK  171  A    between atoms: _414  and  _415
REMARK  172  A    between atoms: _421  and  _423
REMARK  173  A    between atoms: _423  and  _424
REMARK  174  A    between atoms: _423  and  _426
REMARK  175  A    between atoms: _426  and  _427
REMARK  176  A    between atoms: _430  and  _432
REMARK  177  A    between atoms: _432  and  _433
REMARK  178  A    between atoms: _432  and  _435
REMARK  179  A    between atoms: _438  and  _440
REMARK  180  A    between atoms: _440  and  _441
REMARK  181  A    between atoms: _440  and  _443
REMARK  182  A    between atoms: _443  and  _444
REMARK  183  A    between atoms: _448  and  _449
REMARK  184  A    between atoms: _454  and  _456
REMARK  185  A    between atoms: _456  and  _457
REMARK  186  A    between atoms: _456  and  _459
REMARK  187  A    between atoms: _459  and  _460
REMARK  188  A    between atoms: _464  and  _465
REMARK  189  A    between atoms: _470  and  _472
REMARK  190  A    between atoms: _472  and  _473
REMARK  191  A    between atoms: _472  and  _475
REMARK  192  A    between atoms: _478  and  _480
REMARK  193  A    between atoms: _480  and  _481
REMARK  194  A    between atoms: _480  and  _483
REMARK  195  A    between atoms: _483  and  _484
REMARK  196  A    between atoms: _489  and  _491
REMARK  197  A    between atoms: _491  and  _492
REMARK  198  A    between atoms: _491  and  _494
REMARK  199  A    between atoms: _494  and  _495
REMARK  200  A    between atoms: _498  and  _500
REMARK  201  A    between atoms: _500  and  _501
REMARK  202  A    between atoms: _500  and  _503
REMARK  203  A    between atoms: _503  and  _504
REMARK  204  A    between atoms: _507  and  _509
REMARK  205  A    between atoms: _509  and  _510
REMARK  206  A    between atoms: _512  and  _514
REMARK  207  A    between atoms: _514  and  _515
REMARK  208  A    between atoms: _514  and  _517
REMARK  209  A    between atoms: _517  and  _518
REMARK  210  A    between atoms: _518  and  _519
REMARK  211  A    between atoms: _519  and  _520
REMARK  212  A    between atoms: _529  and  _531
REMARK  213  A    between atoms: _531  and  _532
REMARK  214  A    between atoms: _531  and  _534
REMARK  215  A    between atoms: _534  and  _535
REMARK                            x       y       z     vdW  Elec       q    Type
REMARK                         _______ _______ _______ _____ _____    ______ ____
ROOT
ATOM      1  O   HOH     1      15.136  33.445   5.538  0.00  0.00    +0.000 OA
ENDROOT
TORSDOF 0
REMARK  Name = ../refined-set-2016/2qi5/2qi5_pocket.pdb
REMARK  215 active torsions:
REMARK  status: ('A' for Active; 'I' for Inactive)
REMARK    1  A    between atoms: _1  and  _3
REMARK    2  A    between atoms: _3  and  _4
REMARK    3  A    between atoms: _3  and  _6
REMARK    4  A    between atoms: _6  and  _7
REMARK    5  A    between atoms: _7  and  _8
REMARK    6  A    between atoms: _8  and  _9
REMARK    7  A    between atoms: _18  and  _20
REMARK    8  A    between atoms: _20  and  _21
REMARK    9  A    between atoms: _20  and  _23
REMARK   10  A    between atoms: _23  and  _24
REMARK   11  A    between atoms: _27  and  _29
REMARK   12  A    between atoms: _29  and  _30
REMARK   13  A    between atoms: _29  and  _32
REMARK   14  A    between atoms: _32  and  _33
REMARK   15  A    between atoms: _36  and  _38
REMARK   16  A    between atoms: _38  and  _39
REMARK   17  A    between atoms: _38  and  _41
REMARK   18  A    between atoms: _41  and  _42
REMARK   19  A    between atoms: _45  and  _47
REMARK   20  A    between atoms: _47  and  _48
REMARK   21  A    between atoms: _47  and  _50
REMARK   22  A    between atoms: _50  and  _51
REMARK   23  A    between atoms: _54  and  _56
REMARK   24  A    between atoms: _56  and  _57
REMARK   25  A    between atoms: _59  and  _61
REMARK   26  A    between atoms: _61  and  _62
REMARK   27  A    between atoms: _65  and  _67
REMARK   28  A    between atoms: _67  and  _68
REMARK   29  A    between atoms: _67  and  _70
REMARK   30  A    between atoms: _70  and  _71
REMARK   31  A    between atoms: _74  and  _76
REMARK   32  A    between atoms: _76  and  _77
REMARK   33  A    between atoms: _76  and  _79
REMARK   34  A    between atoms: _79  and  _80
REMARK   35  A    between atoms: _83  and  _85
REMARK   36  A    between atoms: _85  and  _86
REMARK   37  A    between atoms: _85  and  _88
REMARK   38  A    between atoms: _88  and  _89
REMARK   39  A    between atoms: _92  and  _94
REMARK   40  A    between atoms: _94  and  _95
REMARK   41  A    between atoms: _94  and  _97
REMARK   42  A    between atoms: _100  and  _102
REMARK   43  A    between atoms: _102  and  _103
REMARK   44  A    between atoms: _102  and  _105
REMARK   45  A    between atoms: _105  and  _106
REMARK   46  A    between atoms: _109  and  _111
REMARK   47  A    between atoms: _111  and  _112
REMARK   48  A    between atoms: _114  and  _116
REMARK   49  A    between atoms: _116  and  _117
REMARK   50  A    between atoms: _119  and  _121
REMARK   51  A    between atoms: _121  and  _122
REMARK   52  A    between atoms: _121  and  _124
REMARK   53  A    between atoms: _124  and  _125
REMARK   54  A    between atoms: _128  and  _130
REMARK   55  A    between atoms: _130  and  _131
REMARK   56  A    between atoms: _133  and  _135
REMARK   57  A    between atoms: _135  and  _136
REMARK   58  A    between atoms: _138  and  _140
REMARK   59  A    between atoms: _140  and  _141
REMARK   60  A    between atoms: _140  and  _143
REMARK   61  A    between atoms: _143  and  _144
REMARK   62  A    between atoms: _150  and  _152
REMARK   63  A    between atoms: _152  and  _153
REMARK   64  A    between atoms: _152  and  _155
REMARK   65  A    between atoms: _155  and  _156
REMARK   66  A    between atoms: _159  and  _161
REMARK   67  A    between atoms: _161  and  _162
REMARK   68  A    between atoms: _161  and  _164
REMARK   69  A    between atoms: _164  and  _165
REMARK   70  A    between atoms: _169  and  _170
REMARK   71  A    between atoms: _175  and  _177
REMARK   72  A    between atoms: _177  and  _178
REMARK   73  A    between atoms: _177  and  _180
REMARK   74  A    between atoms: _180  and  _181
REMARK   75  A    between atoms: _185  and  _186
REMARK   76  A    between atoms: _191  and  _193
REMARK   77  A    between atoms: _193  and  _194
REMARK   78  A    between atoms: _193  and  _196
REMARK   79  A    between atoms: _199  and  _201
REMARK   80  A    between atoms: _201  and  _202
REMARK   81  A    between atoms: _201  and  _204
REMARK   82  A    between atoms: _204  and  _205
REMARK   83  A    between atoms: _210  and  _212
REMARK   84  A    between atoms: _212  and  _213
REMARK   85  A    between atoms: _212  and  _215
REMARK   86  A    between atoms: _215  and  _216
REMARK   87  A    between atoms: _219  and  _221
REMARK   88  A    between atoms: _221  and  _222
REMARK   89  A    between atoms: _221  and  _224
REMARK   90  A    between atoms: _224  and  _225
REMARK   91  A    between atoms: _228  and  _230
REMARK   92  A    between atoms: _230  and  _231
REMARK   93  A    between atoms: _233  and  _235
REMARK   94  A    between atoms: _235  and  _236
REMARK   95  A    between atoms: _235  and  _238
REMARK   96  A    between atoms: _238  and  _239
REMARK   97  A    between atoms: _239  and  _240
REMARK   98  A    between atoms: _240  and  _241
REMARK   99  A    between atoms: _250  and  _252
REMARK  100  A    between atoms: _252  and  _253
REMARK  101  A    between atoms: _252  and  _255
REMARK  102  A    between atoms: _255  and  _256
REMARK  103  A    between atoms: _256  and  _257
REMARK  104  A    between atoms: _257  and  _258
REMARK  105  A    between atoms: _267  and  _269
REMARK  106  A    between atoms: _269  and  _270
REMARK  107  A    between atoms: _269  and  _272
REMARK  108  A    between atoms: _272  and  _273
REMARK  109  A    between atoms: _276  and  _278
REMARK  110  A    between atoms: _278  and  _279
REMARK  111  A    between atoms: _278  and  _281
REMARK  112  A    between atoms: _281  and  _282
REMARK  113  A    between atoms: _285  and  _287
REMARK  114  A    between atoms: _287  and  _288
REMARK  115  A    between atoms: _287  and  _290
REMARK  116  A    between atoms: _290  and  _291
REMARK  117  A    between atoms: _294  and  _296
REMARK  118  A    between atoms: _296  and  _297
REMARK  119  A    between atoms: _296  and  _299
REMARK  120  A    between atoms: _299  and  _300
REMARK  121  A    between atoms: _303  and  _305
REMARK  122  A    between atoms: _305  and  _306
REMARK  123  A    between atoms: _308  and  _310
REMARK  124  A    between atoms: _310  and  _311
REMARK  125  A    between atoms: _314  and  _316
REMARK  126  A    between atoms: _316  and  _317
REMARK  127  A    between atoms: _316  and  _319
REMARK  128  A    between atoms: _319  and  _320
REMARK  129  A    between atoms: _323  and  _325
REMARK  130  A    between atoms: _325  and  _326
REMARK  131  A    between atoms: _325  and  _328
REMARK  132  A    between atoms: _328  and  _329
REMARK  133  A    between atoms: _332  and  _334
REMARK  134  A    between atoms: _334  and  _335
REMARK  135  A    between atoms: _334  and  _337
REMARK  136  A    between atoms: _337  and  _338
REMARK  137  A    between atoms: _341  and  _343
REMARK  138  A    between atoms: _343  and  _344
REMARK  139  A    between atoms: _343  and  _346
REMARK  140  A    between atoms: _349  and  _351
REMARK  141  A    between atoms: _351  and  _352
REMARK  142  A    between atoms: _351  and  _354
REMARK  143  A    between atoms: _354  and  _355
REMARK  144  A    between atoms: _355  and  _356
REMARK  145  A    between atoms: _356  and  _357
REMARK  146  A    between atoms: _357  and  _358
REMARK  147  A    between atoms: _362  and  _364
REMARK  148  A    between atoms: _364  and  _365
REMARK  149  A    between atoms: _364  and  _367
REMARK  150  A    between atoms: _367  and  _368
REMARK  151  A    between atoms: _368  and  _369
REMARK  152  A    between atoms: _371  and  _373
REMARK  153  A    between atoms: _373  and  _374
REMARK  154  A    between atoms: _373  and  _376
REMARK  155  A    between atoms: _376  and  _377
REMARK  156  A    between atoms: _380  and  _382
REMARK  157  A    between atoms: _382  and  _383
REMARK  158  A    between atoms: _385  and  _387
REMARK  159  A    between atoms: _387  and  _388
REMARK  160  A    between atoms: _390  and  _392
REMARK  161  A    between atoms: _392  and  _393
REMARK  162  A    between atoms: _392  and  _395
REMARK  163  A    between atoms: _395  and  _396
REMARK  164  A    between atoms: _399  and  _401
REMARK  165  A    between atoms: _401  and  _402
REMARK  166  A    between atoms: _404  and  _406
REMARK  167  A    between atoms: _406  and  _407
REMARK  168  A    between atoms: _409  and  _411
REMARK  169  A    between atoms: _411  and  _412
REMARK  170  A    between atoms: _411  and  _414
REMARK  171  A    between atoms: _414  and  _415
REMARK  172  A    between atoms: _421  and  _423
REMARK  173  A    between atoms: _423  and  _424
REMARK  174  A    between atoms: _423  and  _426
REMARK  175  A    between atoms: _426  and  _427
REMARK  176  A    between atoms: _430  and  _432
REMARK  177  A    between atoms: _432  and  _433
REMARK  178  A    between atoms: _432  and  _435
REMARK  179  A    between atoms: _438  and  _440
REMARK  180  A    between atoms: _440  and  _441
REMARK  181  A    between atoms: _440  and  _443
REMARK  182  A    between atoms: _443  and  _444
REMARK  183  A    between atoms: _448  and  _449
REMARK  184  A    between atoms: _454  and  _456
REMARK  185  A    between atoms: _456  and  _457
REMARK  186  A    between atoms: _456  and  _459
REMARK  187  A    between atoms: _459  and  _460
REMARK  188  A    between atoms: _464  and  _465
REMARK  189  A    between atoms: _470  and  _472
REMARK  190  A    between atoms: _472  and  _473
REMARK  191  A    between atoms: _472  and  _475
REMARK  192  A    between atoms: _478  and  _480
REMARK  193  A    between atoms: _480  and  _481
REMARK  194  A    between atoms: _480  and  _483
REMARK  195  A    between atoms: _483  and  _484
REMARK  196  A    between atoms: _489  and  _491
REMARK  197  A    between atoms: _491  and  _492
REMARK  198  A    between atoms: _491  and  _494
REMARK  199  A    between atoms: _494  and  _495
REMARK  200  A    between atoms: _498  and  _500
REMARK  201  A    between atoms: _500  and  _501
REMARK  202  A    between atoms: _500  and  _503
REMARK  203  A    between atoms: _503  and  _504
REMARK  204  A    between atoms: _507  and  _509
REMARK  205  A    between atoms: _509  and  _510
REMARK  206  A    between atoms: _512  and  _514
REMARK  207  A    between atoms: _514  and  _515
REMARK  208  A    between atoms: _514  and  _517
REMARK  209  A    between atoms: _517  and  _518
REMARK  210  A    between atoms: _518  and  _519
REMARK  211  A    between atoms: _519  and  _520
REMARK  212  A    between atoms: _529  and  _531
REMARK  213  A    between atoms: _531  and  _532
REMARK  214  A    between atoms: _531  and  _534
REMARK  215  A    between atoms: _534  and  _535
REMARK                            x       y       z     vdW  Elec       q    Type
REMARK                         _______ _______ _______ _____ _____    ______ ____
ROOT
ATOM      1  O   HOH     1      20.703  24.960   5.754  0.00  0.00    +0.000 OA
ENDROOT
TORSDOF 0
REMARK  Name = ../refined-set-2016/2qi5/2qi5_pocket.pdb
REMARK  215 active torsions:
REMARK  status: ('A' for Active; 'I' for Inactive)
REMARK    1  A    between atoms: _1  and  _3
REMARK    2  A    between atoms: _3  and  _4
REMARK    3  A    between atoms: _3  and  _6
REMARK    4  A    between atoms: _6  and  _7
REMARK    5  A    between atoms: _7  and  _8
REMARK    6  A    between atoms: _8  and  _9
REMARK    7  A    between atoms: _18  and  _20
REMARK    8  A    between atoms: _20  and  _21
REMARK    9  A    between atoms: _20  and  _23
REMARK   10  A    between atoms: _23  and  _24
REMARK   11  A    between atoms: _27  and  _29
REMARK   12  A    between atoms: _29  and  _30
REMARK   13  A    between atoms: _29  and  _32
REMARK   14  A    between atoms: _32  and  _33
REMARK   15  A    between atoms: _36  and  _38
REMARK   16  A    between atoms: _38  and  _39
REMARK   17  A    between atoms: _38  and  _41
REMARK   18  A    between atoms: _41  and  _42
REMARK   19  A    between atoms: _45  and  _47
REMARK   20  A    between atoms: _47  and  _48
REMARK   21  A    between atoms: _47  and  _50
REMARK   22  A    between atoms: _50  and  _51
REMARK   23  A    between atoms: _54  and  _56
REMARK   24  A    between atoms: _56  and  _57
REMARK   25  A    between atoms: _59  and  _61
REMARK   26  A    between atoms: _61  and  _62
REMARK   27  A    between atoms: _65  and  _67
REMARK   28  A    between atoms: _67  and  _68
REMARK   29  A    between atoms: _67  and  _70
REMARK   30  A    between atoms: _70  and  _71
REMARK   31  A    between atoms: _74  and  _76
REMARK   32  A    between atoms: _76  and  _77
REMARK   33  A    between atoms: _76  and  _79
REMARK   34  A    between atoms: _79  and  _80
REMARK   35  A    between atoms: _83  and  _85
REMARK   36  A    between atoms: _85  and  _86
REMARK   37  A    between atoms: _85  and  _88
REMARK   38  A    between atoms: _88  and  _89
REMARK   39  A    between atoms: _92  and  _94
REMARK   40  A    between atoms: _94  and  _95
REMARK   41  A    between atoms: _94  and  _97
REMARK   42  A    between atoms: _100  and  _102
REMARK   43  A    between atoms: _102  and  _103
REMARK   44  A    between atoms: _102  and  _105
REMARK   45  A    between atoms: _105  and  _106
REMARK   46  A    between atoms: _109  and  _111
REMARK   47  A    between atoms: _111  and  _112
REMARK   48  A    between atoms: _114  and  _116
REMARK   49  A    between atoms: _116  and  _117
REMARK   50  A    between atoms: _119  and  _121
REMARK   51  A    between atoms: _121  and  _122
REMARK   52  A    between atoms: _121  and  _124
REMARK   53  A    between atoms: _124  and  _125
REMARK   54  A    between atoms: _128  and  _130
REMARK   55  A    between atoms: _130  and  _131
REMARK   56  A    between atoms: _133  and  _135
REMARK   57  A    between atoms: _135  and  _136
REMARK   58  A    between atoms: _138  and  _140
REMARK   59  A    between atoms: _140  and  _141
REMARK   60  A    between atoms: _140  and  _143
REMARK   61  A    between atoms: _143  and  _144
REMARK   62  A    between atoms: _150  and  _152
REMARK   63  A    between atoms: _152  and  _153
REMARK   64  A    between atoms: _152  and  _155
REMARK   65  A    between atoms: _155  and  _156
REMARK   66  A    between atoms: _159  and  _161
REMARK   67  A    between atoms: _161  and  _162
REMARK   68  A    between atoms: _161  and  _164
REMARK   69  A    between atoms: _164  and  _165
REMARK   70  A    between atoms: _169  and  _170
REMARK   71  A    between atoms: _175  and  _177
REMARK   72  A    between atoms: _177  and  _178
REMARK   73  A    between atoms: _177  and  _180
REMARK   74  A    between atoms: _180  and  _181
REMARK   75  A    between atoms: _185  and  _186
REMARK   76  A    between atoms: _191  and  _193
REMARK   77  A    between atoms: _193  and  _194
REMARK   78  A    between atoms: _193  and  _196
REMARK   79  A    between atoms: _199  and  _201
REMARK   80  A    between atoms: _201  and  _202
REMARK   81  A    between atoms: _201  and  _204
REMARK   82  A    between atoms: _204  and  _205
REMARK   83  A    between atoms: _210  and  _212
REMARK   84  A    between atoms: _212  and  _213
REMARK   85  A    between atoms: _212  and  _215
REMARK   86  A    between atoms: _215  and  _216
REMARK   87  A    between atoms: _219  and  _221
REMARK   88  A    between atoms: _221  and  _222
REMARK   89  A    between atoms: _221  and  _224
REMARK   90  A    between atoms: _224  and  _225
REMARK   91  A    between atoms: _228  and  _230
REMARK   92  A    between atoms: _230  and  _231
REMARK   93  A    between atoms: _233  and  _235
REMARK   94  A    between atoms: _235  and  _236
REMARK   95  A    between atoms: _235  and  _238
REMARK   96  A    between atoms: _238  and  _239
REMARK   97  A    between atoms: _239  and  _240
REMARK   98  A    between atoms: _240  and  _241
REMARK   99  A    between atoms: _250  and  _252
REMARK  100  A    between atoms: _252  and  _253
REMARK  101  A    between atoms: _252  and  _255
REMARK  102  A    between atoms: _255  and  _256
REMARK  103  A    between atoms: _256  and  _257
REMARK  104  A    between atoms: _257  and  _258
REMARK  105  A    between atoms: _267  and  _269
REMARK  106  A    between atoms: _269  and  _270
REMARK  107  A    between atoms: _269  and  _272
REMARK  108  A    between atoms: _272  and  _273
REMARK  109  A    between atoms: _276  and  _278
REMARK  110  A    between atoms: _278  and  _279
REMARK  111  A    between atoms: _278  and  _281
REMARK  112  A    between atoms: _281  and  _282
REMARK  113  A    between atoms: _285  and  _287
REMARK  114  A    between atoms: _287  and  _288
REMARK  115  A    between atoms: _287  and  _290
REMARK  116  A    between atoms: _290  and  _291
REMARK  117  A    between atoms: _294  and  _296
REMARK  118  A    between atoms: _296  and  _297
REMARK  119  A    between atoms: _296  and  _299
REMARK  120  A    between atoms: _299  and  _300
REMARK  121  A    between atoms: _303  and  _305
REMARK  122  A    between atoms: _305  and  _306
REMARK  123  A    between atoms: _308  and  _310
REMARK  124  A    between atoms: _310  and  _311
REMARK  125  A    between atoms: _314  and  _316
REMARK  126  A    between atoms: _316  and  _317
REMARK  127  A    between atoms: _316  and  _319
REMARK  128  A    between atoms: _319  and  _320
REMARK  129  A    between atoms: _323  and  _325
REMARK  130  A    between atoms: _325  and  _326
REMARK  131  A    between atoms: _325  and  _328
REMARK  132  A    between atoms: _328  and  _329
REMARK  133  A    between atoms: _332  and  _334
REMARK  134  A    between atoms: _334  and  _335
REMARK  135  A    between atoms: _334  and  _337
REMARK  136  A    between atoms: _337  and  _338
REMARK  137  A    between atoms: _341  and  _343
REMARK  138  A    between atoms: _343  and  _344
REMARK  139  A    between atoms: _343  and  _346
REMARK  140  A    between atoms: _349  and  _351
REMARK  141  A    between atoms: _351  and  _352
REMARK  142  A    between atoms: _351  and  _354
REMARK  143  A    between atoms: _354  and  _355
REMARK  144  A    between atoms: _355  and  _356
REMARK  145  A    between atoms: _356  and  _357
REMARK  146  A    between atoms: _357  and  _358
REMARK  147  A    between atoms: _362  and  _364
REMARK  148  A    between atoms: _364  and  _365
REMARK  149  A    between atoms: _364  and  _367
REMARK  150  A    between atoms: _367  and  _368
REMARK  151  A    between atoms: _368  and  _369
REMARK  152  A    between atoms: _371  and  _373
REMARK  153  A    between atoms: _373  and  _374
REMARK  154  A    between atoms: _373  and  _376
REMARK  155  A    between atoms: _376  and  _377
REMARK  156  A    between atoms: _380  and  _382
REMARK  157  A    between atoms: _382  and  _383
REMARK  158  A    between atoms: _385  and  _387
REMARK  159  A    between atoms: _387  and  _388
REMARK  160  A    between atoms: _390  and  _392
REMARK  161  A    between atoms: _392  and  _393
REMARK  162  A    between atoms: _392  and  _395
REMARK  163  A    between atoms: _395  and  _396
REMARK  164  A    between atoms: _399  and  _401
REMARK  165  A    between atoms: _401  and  _402
REMARK  166  A    between atoms: _404  and  _406
REMARK  167  A    between atoms: _406  and  _407
REMARK  168  A    between atoms: _409  and  _411
REMARK  169  A    between atoms: _411  and  _412
REMARK  170  A    between atoms: _411  and  _414
REMARK  171  A    between atoms: _414  and  _415
REMARK  172  A    between atoms: _421  and  _423
REMARK  173  A    between atoms: _423  and  _424
REMARK  174  A    between atoms: _423  and  _426
REMARK  175  A    between atoms: _426  and  _427
REMARK  176  A    between atoms: _430  and  _432
REMARK  177  A    between atoms: _432  and  _433
REMARK  178  A    between atoms: _432  and  _435
REMARK  179  A    between atoms: _438  and  _440
REMARK  180  A    between atoms: _440  and  _441
REMARK  181  A    between atoms: _440  and  _443
REMARK  182  A    between atoms: _443  and  _444
REMARK  183  A    between atoms: _448  and  _449
REMARK  184  A    between atoms: _454  and  _456
REMARK  185  A    between atoms: _456  and  _457
REMARK  186  A    between atoms: _456  and  _459
REMARK  187  A    between atoms: _459  and  _460
REMARK  188  A    between atoms: _464  and  _465
REMARK  189  A    between atoms: _470  and  _472
REMARK  190  A    between atoms: _472  and  _473
REMARK  191  A    between atoms: _472  and  _475
REMARK  192  A    between atoms: _478  and  _480
REMARK  193  A    between atoms: _480  and  _481
REMARK  194  A    between atoms: _480  and  _483
REMARK  195  A    between atoms: _483  and  _484
REMARK  196  A    between atoms: _489  and  _491
REMARK  197  A    between atoms: _491  and  _492
REMARK  198  A    between atoms: _491  and  _494
REMARK  199  A    between atoms: _494  and  _495
REMARK  200  A    between atoms: _498  and  _500
REMARK  201  A    between atoms: _500  and  _501
REMARK  202  A    between atoms: _500  and  _503
REMARK  203  A    between atoms: _503  and  _504
REMARK  204  A    between atoms: _507  and  _509
REMARK  205  A    between atoms: _509  and  _510
REMARK  206  A    between atoms: _512  and  _514
REMARK  207  A    between atoms: _514  and  _515
REMARK  208  A    between atoms: _514  and  _517
REMARK  209  A    between atoms: _517  and  _518
REMARK  210  A    between atoms: _518  and  _519
REMARK  211  A    between atoms: _519  and  _520
REMARK  212  A    between atoms: _529  and  _531
REMARK  213  A    between atoms: _531  and  _532
REMARK  214  A    between atoms: _531  and  _534
REMARK  215  A    between atoms: _534  and  _535
REMARK                            x       y       z     vdW  Elec       q    Type
REMARK                         _______ _______ _______ _____ _____    ______ ____
ROOT
ATOM      1  O   HOH     1      26.121  39.300  20.121  0.00  0.00    +0.000 OA
ENDROOT
TORSDOF 0
REMARK  Name = ../refined-set-2016/2qi5/2qi5_pocket.pdb
REMARK  215 active torsions:
REMARK  status: ('A' for Active; 'I' for Inactive)
REMARK    1  A    between atoms: _1  and  _3
REMARK    2  A    between atoms: _3  and  _4
REMARK    3  A    between atoms: _3  and  _6
REMARK    4  A    between atoms: _6  and  _7
REMARK    5  A    between atoms: _7  and  _8
REMARK    6  A    between atoms: _8  and  _9
REMARK    7  A    between atoms: _18  and  _20
REMARK    8  A    between atoms: _20  and  _21
REMARK    9  A    between atoms: _20  and  _23
REMARK   10  A    between atoms: _23  and  _24
REMARK   11  A    between atoms: _27  and  _29
REMARK   12  A    between atoms: _29  and  _30
REMARK   13  A    between atoms: _29  and  _32
REMARK   14  A    between atoms: _32  and  _33
REMARK   15  A    between atoms: _36  and  _38
REMARK   16  A    between atoms: _38  and  _39
REMARK   17  A    between atoms: _38  and  _41
REMARK   18  A    between atoms: _41  and  _42
REMARK   19  A    between atoms: _45  and  _47
REMARK   20  A    between atoms: _47  and  _48
REMARK   21  A    between atoms: _47  and  _50
REMARK   22  A    between atoms: _50  and  _51
REMARK   23  A    between atoms: _54  and  _56
REMARK   24  A    between atoms: _56  and  _57
REMARK   25  A    between atoms: _59  and  _61
REMARK   26  A    between atoms: _61  and  _62
REMARK   27  A    between atoms: _65  and  _67
REMARK   28  A    between atoms: _67  and  _68
REMARK   29  A    between atoms: _67  and  _70
REMARK   30  A    between atoms: _70  and  _71
REMARK   31  A    between atoms: _74  and  _76
REMARK   32  A    between atoms: _76  and  _77
REMARK   33  A    between atoms: _76  and  _79
REMARK   34  A    between atoms: _79  and  _80
REMARK   35  A    between atoms: _83  and  _85
REMARK   36  A    between atoms: _85  and  _86
REMARK   37  A    between atoms: _85  and  _88
REMARK   38  A    between atoms: _88  and  _89
REMARK   39  A    between atoms: _92  and  _94
REMARK   40  A    between atoms: _94  and  _95
REMARK   41  A    between atoms: _94  and  _97
REMARK   42  A    between atoms: _100  and  _102
REMARK   43  A    between atoms: _102  and  _103
REMARK   44  A    between atoms: _102  and  _105
REMARK   45  A    between atoms: _105  and  _106
REMARK   46  A    between atoms: _109  and  _111
REMARK   47  A    between atoms: _111  and  _112
REMARK   48  A    between atoms: _114  and  _116
REMARK   49  A    between atoms: _116  and  _117
REMARK   50  A    between atoms: _119  and  _121
REMARK   51  A    between atoms: _121  and  _122
REMARK   52  A    between atoms: _121  and  _124
REMARK   53  A    between atoms: _124  and  _125
REMARK   54  A    between atoms: _128  and  _130
REMARK   55  A    between atoms: _130  and  _131
REMARK   56  A    between atoms: _133  and  _135
REMARK   57  A    between atoms: _135  and  _136
REMARK   58  A    between atoms: _138  and  _140
REMARK   59  A    between atoms: _140  and  _141
REMARK   60  A    between atoms: _140  and  _143
REMARK   61  A    between atoms: _143  and  _144
REMARK   62  A    between atoms: _150  and  _152
REMARK   63  A    between atoms: _152  and  _153
REMARK   64  A    between atoms: _152  and  _155
REMARK   65  A    between atoms: _155  and  _156
REMARK   66  A    between atoms: _159  and  _161
REMARK   67  A    between atoms: _161  and  _162
REMARK   68  A    between atoms: _161  and  _164
REMARK   69  A    between atoms: _164  and  _165
REMARK   70  A    between atoms: _169  and  _170
REMARK   71  A    between atoms: _175  and  _177
REMARK   72  A    between atoms: _177  and  _178
REMARK   73  A    between atoms: _177  and  _180
REMARK   74  A    between atoms: _180  and  _181
REMARK   75  A    between atoms: _185  and  _186
REMARK   76  A    between atoms: _191  and  _193
REMARK   77  A    between atoms: _193  and  _194
REMARK   78  A    between atoms: _193  and  _196
REMARK   79  A    between atoms: _199  and  _201
REMARK   80  A    between atoms: _201  and  _202
REMARK   81  A    between atoms: _201  and  _204
REMARK   82  A    between atoms: _204  and  _205
REMARK   83  A    between atoms: _210  and  _212
REMARK   84  A    between atoms: _212  and  _213
REMARK   85  A    between atoms: _212  and  _215
REMARK   86  A    between atoms: _215  and  _216
REMARK   87  A    between atoms: _219  and  _221
REMARK   88  A    between atoms: _221  and  _222
REMARK   89  A    between atoms: _221  and  _224
REMARK   90  A    between atoms: _224  and  _225
REMARK   91  A    between atoms: _228  and  _230
REMARK   92  A    between atoms: _230  and  _231
REMARK   93  A    between atoms: _233  and  _235
REMARK   94  A    between atoms: _235  and  _236
REMARK   95  A    between atoms: _235  and  _238
REMARK   96  A    between atoms: _238  and  _239
REMARK   97  A    between atoms: _239  and  _240
REMARK   98  A    between atoms: _240  and  _241
REMARK   99  A    between atoms: _250  and  _252
REMARK  100  A    between atoms: _252  and  _253
REMARK  101  A    between atoms: _252  and  _255
REMARK  102  A    between atoms: _255  and  _256
REMARK  103  A    between atoms: _256  and  _257
REMARK  104  A    between atoms: _257  and  _258
REMARK  105  A    between atoms: _267  and  _269
REMARK  106  A    between atoms: _269  and  _270
REMARK  107  A    between atoms: _269  and  _272
REMARK  108  A    between atoms: _272  and  _273
REMARK  109  A    between atoms: _276  and  _278
REMARK  110  A    between atoms: _278  and  _279
REMARK  111  A    between atoms: _278  and  _281
REMARK  112  A    between atoms: _281  and  _282
REMARK  113  A    between atoms: _285  and  _287
REMARK  114  A    between atoms: _287  and  _288
REMARK  115  A    between atoms: _287  and  _290
REMARK  116  A    between atoms: _290  and  _291
REMARK  117  A    between atoms: _294  and  _296
REMARK  118  A    between atoms: _296  and  _297
REMARK  119  A    between atoms: _296  and  _299
REMARK  120  A    between atoms: _299  and  _300
REMARK  121  A    between atoms: _303  and  _305
REMARK  122  A    between atoms: _305  and  _306
REMARK  123  A    between atoms: _308  and  _310
REMARK  124  A    between atoms: _310  and  _311
REMARK  125  A    between atoms: _314  and  _316
REMARK  126  A    between atoms: _316  and  _317
REMARK  127  A    between atoms: _316  and  _319
REMARK  128  A    between atoms: _319  and  _320
REMARK  129  A    between atoms: _323  and  _325
REMARK  130  A    between atoms: _325  and  _326
REMARK  131  A    between atoms: _325  and  _328
REMARK  132  A    between atoms: _328  and  _329
REMARK  133  A    between atoms: _332  and  _334
REMARK  134  A    between atoms: _334  and  _335
REMARK  135  A    between atoms: _334  and  _337
REMARK  136  A    between atoms: _337  and  _338
REMARK  137  A    between atoms: _341  and  _343
REMARK  138  A    between atoms: _343  and  _344
REMARK  139  A    between atoms: _343  and  _346
REMARK  140  A    between atoms: _349  and  _351
REMARK  141  A    between atoms: _351  and  _352
REMARK  142  A    between atoms: _351  and  _354
REMARK  143  A    between atoms: _354  and  _355
REMARK  144  A    between atoms: _355  and  _356
REMARK  145  A    between atoms: _356  and  _357
REMARK  146  A    between atoms: _357  and  _358
REMARK  147  A    between atoms: _362  and  _364
REMARK  148  A    between atoms: _364  and  _365
REMARK  149  A    between atoms: _364  and  _367
REMARK  150  A    between atoms: _367  and  _368
REMARK  151  A    between atoms: _368  and  _369
REMARK  152  A    between atoms: _371  and  _373
REMARK  153  A    between atoms: _373  and  _374
REMARK  154  A    between atoms: _373  and  _376
REMARK  155  A    between atoms: _376  and  _377
REMARK  156  A    between atoms: _380  and  _382
REMARK  157  A    between atoms: _382  and  _383
REMARK  158  A    between atoms: _385  and  _387
REMARK  159  A    between atoms: _387  and  _388
REMARK  160  A    between atoms: _390  and  _392
REMARK  161  A    between atoms: _392  and  _393
REMARK  162  A    between atoms: _392  and  _395
REMARK  163  A    between atoms: _395  and  _396
REMARK  164  A    between atoms: _399  and  _401
REMARK  165  A    between atoms: _401  and  _402
REMARK  166  A    between atoms: _404  and  _406
REMARK  167  A    between atoms: _406  and  _407
REMARK  168  A    between atoms: _409  and  _411
REMARK  169  A    between atoms: _411  and  _412
REMARK  170  A    between atoms: _411  and  _414
REMARK  171  A    between atoms: _414  and  _415
REMARK  172  A    between atoms: _421  and  _423
REMARK  173  A    between atoms: _423  and  _424
REMARK  174  A    between atoms: _423  and  _426
REMARK  175  A    between atoms: _426  and  _427
REMARK  176  A    between atoms: _430  and  _432
REMARK  177  A    between atoms: _432  and  _433
REMARK  178  A    between atoms: _432  and  _435
REMARK  179  A    between atoms: _438  and  _440
REMARK  180  A    between atoms: _440  and  _441
REMARK  181  A    between atoms: _440  and  _443
REMARK  182  A    between atoms: _443  and  _444
REMARK  183  A    between atoms: _448  and  _449
REMARK  184  A    between atoms: _454  and  _456
REMARK  185  A    between atoms: _456  and  _457
REMARK  186  A    between atoms: _456  and  _459
REMARK  187  A    between atoms: _459  and  _460
REMARK  188  A    between atoms: _464  and  _465
REMARK  189  A    between atoms: _470  and  _472
REMARK  190  A    between atoms: _472  and  _473
REMARK  191  A    between atoms: _472  and  _475
REMARK  192  A    between atoms: _478  and  _480
REMARK  193  A    between atoms: _480  and  _481
REMARK  194  A    between atoms: _480  and  _483
REMARK  195  A    between atoms: _483  and  _484
REMARK  196  A    between atoms: _489  and  _491
REMARK  197  A    between atoms: _491  and  _492
REMARK  198  A    between atoms: _491  and  _494
REMARK  199  A    between atoms: _494  and  _495
REMARK  200  A    between atoms: _498  and  _500
REMARK  201  A    between atoms: _500  and  _501
REMARK  202  A    between atoms: _500  and  _503
REMARK  203  A    between atoms: _503  and  _504
REMARK  204  A    between atoms: _507  and  _509
REMARK  205  A    between atoms: _509  and  _510
REMARK  206  A    between atoms: _512  and  _514
REMARK  207  A    between atoms: _514  and  _515
REMARK  208  A    between atoms: _514  and  _517
REMARK  209  A    between atoms: _517  and  _518
REMARK  210  A    between atoms: _518  and  _519
REMARK  211  A    between atoms: _519  and  _520
REMARK  212  A    between atoms: _529  and  _531
REMARK  213  A    between atoms: _531  and  _532
REMARK  214  A    between atoms: _531  and  _534
REMARK  215  A    between atoms: _534  and  _535
REMARK                            x       y       z     vdW  Elec       q    Type
REMARK                         _______ _______ _______ _____ _____    ______ ____
ROOT
ATOM      1  O   HOH     1      26.368  20.401   9.057  0.00  0.00    +0.000 OA
ENDROOT
TORSDOF 0
REMARK  Name = ../refined-set-2016/2qi5/2qi5_pocket.pdb
REMARK  215 active torsions:
REMARK  status: ('A' for Active; 'I' for Inactive)
REMARK    1  A    between atoms: _1  and  _3
REMARK    2  A    between atoms: _3  and  _4
REMARK    3  A    between atoms: _3  and  _6
REMARK    4  A    between atoms: _6  and  _7
REMARK    5  A    between atoms: _7  and  _8
REMARK    6  A    between atoms: _8  and  _9
REMARK    7  A    between atoms: _18  and  _20
REMARK    8  A    between atoms: _20  and  _21
REMARK    9  A    between atoms: _20  and  _23
REMARK   10  A    between atoms: _23  and  _24
REMARK   11  A    between atoms: _27  and  _29
REMARK   12  A    between atoms: _29  and  _30
REMARK   13  A    between atoms: _29  and  _32
REMARK   14  A    between atoms: _32  and  _33
REMARK   15  A    between atoms: _36  and  _38
REMARK   16  A    between atoms: _38  and  _39
REMARK   17  A    between atoms: _38  and  _41
REMARK   18  A    between atoms: _41  and  _42
REMARK   19  A    between atoms: _45  and  _47
REMARK   20  A    between atoms: _47  and  _48
REMARK   21  A    between atoms: _47  and  _50
REMARK   22  A    between atoms: _50  and  _51
REMARK   23  A    between atoms: _54  and  _56
REMARK   24  A    between atoms: _56  and  _57
REMARK   25  A    between atoms: _59  and  _61
REMARK   26  A    between atoms: _61  and  _62
REMARK   27  A    between atoms: _65  and  _67
REMARK   28  A    between atoms: _67  and  _68
REMARK   29  A    between atoms: _67  and  _70
REMARK   30  A    between atoms: _70  and  _71
REMARK   31  A    between atoms: _74  and  _76
REMARK   32  A    between atoms: _76  and  _77
REMARK   33  A    between atoms: _76  and  _79
REMARK   34  A    between atoms: _79  and  _80
REMARK   35  A    between atoms: _83  and  _85
REMARK   36  A    between atoms: _85  and  _86
REMARK   37  A    between atoms: _85  and  _88
REMARK   38  A    between atoms: _88  and  _89
REMARK   39  A    between atoms: _92  and  _94
REMARK   40  A    between atoms: _94  and  _95
REMARK   41  A    between atoms: _94  and  _97
REMARK   42  A    between atoms: _100  and  _102
REMARK   43  A    between atoms: _102  and  _103
REMARK   44  A    between atoms: _102  and  _105
REMARK   45  A    between atoms: _105  and  _106
REMARK   46  A    between atoms: _109  and  _111
REMARK   47  A    between atoms: _111  and  _112
REMARK   48  A    between atoms: _114  and  _116
REMARK   49  A    between atoms: _116  and  _117
REMARK   50  A    between atoms: _119  and  _121
REMARK   51  A    between atoms: _121  and  _122
REMARK   52  A    between atoms: _121  and  _124
REMARK   53  A    between atoms: _124  and  _125
REMARK   54  A    between atoms: _128  and  _130
REMARK   55  A    between atoms: _130  and  _131
REMARK   56  A    between atoms: _133  and  _135
REMARK   57  A    between atoms: _135  and  _136
REMARK   58  A    between atoms: _138  and  _140
REMARK   59  A    between atoms: _140  and  _141
REMARK   60  A    between atoms: _140  and  _143
REMARK   61  A    between atoms: _143  and  _144
REMARK   62  A    between atoms: _150  and  _152
REMARK   63  A    between atoms: _152  and  _153
REMARK   64  A    between atoms: _152  and  _155
REMARK   65  A    between atoms: _155  and  _156
REMARK   66  A    between atoms: _159  and  _161
REMARK   67  A    between atoms: _161  and  _162
REMARK   68  A    between atoms: _161  and  _164
REMARK   69  A    between atoms: _164  and  _165
REMARK   70  A    between atoms: _169  and  _170
REMARK   71  A    between atoms: _175  and  _177
REMARK   72  A    between atoms: _177  and  _178
REMARK   73  A    between atoms: _177  and  _180
REMARK   74  A    between atoms: _180  and  _181
REMARK   75  A    between atoms: _185  and  _186
REMARK   76  A    between atoms: _191  and  _193
REMARK   77  A    between atoms: _193  and  _194
REMARK   78  A    between atoms: _193  and  _196
REMARK   79  A    between atoms: _199  and  _201
REMARK   80  A    between atoms: _201  and  _202
REMARK   81  A    between atoms: _201  and  _204
REMARK   82  A    between atoms: _204  and  _205
REMARK   83  A    between atoms: _210  and  _212
REMARK   84  A    between atoms: _212  and  _213
REMARK   85  A    between atoms: _212  and  _215
REMARK   86  A    between atoms: _215  and  _216
REMARK   87  A    between atoms: _219  and  _221
REMARK   88  A    between atoms: _221  and  _222
REMARK   89  A    between atoms: _221  and  _224
REMARK   90  A    between atoms: _224  and  _225
REMARK   91  A    between atoms: _228  and  _230
REMARK   92  A    between atoms: _230  and  _231
REMARK   93  A    between atoms: _233  and  _235
REMARK   94  A    between atoms: _235  and  _236
REMARK   95  A    between atoms: _235  and  _238
REMARK   96  A    between atoms: _238  and  _239
REMARK   97  A    between atoms: _239  and  _240
REMARK   98  A    between atoms: _240  and  _241
REMARK   99  A    between atoms: _250  and  _252
REMARK  100  A    between atoms: _252  and  _253
REMARK  101  A    between atoms: _252  and  _255
REMARK  102  A    between atoms: _255  and  _256
REMARK  103  A    between atoms: _256  and  _257
REMARK  104  A    between atoms: _257  and  _258
REMARK  105  A    between atoms: _267  and  _269
REMARK  106  A    between atoms: _269  and  _270
REMARK  107  A    between atoms: _269  and  _272
REMARK  108  A    between atoms: _272  and  _273
REMARK  109  A    between atoms: _276  and  _278
REMARK  110  A    between atoms: _278  and  _279
REMARK  111  A    between atoms: _278  and  _281
REMARK  112  A    between atoms: _281  and  _282
REMARK  113  A    between atoms: _285  and  _287
REMARK  114  A    between atoms: _287  and  _288
REMARK  115  A    between atoms: _287  and  _290
REMARK  116  A    between atoms: _290  and  _291
REMARK  117  A    between atoms: _294  and  _296
REMARK  118  A    between atoms: _296  and  _297
REMARK  119  A    between atoms: _296  and  _299
REMARK  120  A    between atoms: _299  and  _300
REMARK  121  A    between atoms: _303  and  _305
REMARK  122  A    between atoms: _305  and  _306
REMARK  123  A    between atoms: _308  and  _310
REMARK  124  A    between atoms: _310  and  _311
REMARK  125  A    between atoms: _314  and  _316
REMARK  126  A    between atoms: _316  and  _317
REMARK  127  A    between atoms: _316  and  _319
REMARK  128  A    between atoms: _319  and  _320
REMARK  129  A    between atoms: _323  and  _325
REMARK  130  A    between atoms: _325  and  _326
REMARK  131  A    between atoms: _325  and  _328
REMARK  132  A    between atoms: _328  and  _329
REMARK  133  A    between atoms: _332  and  _334
REMARK  134  A    between atoms: _334  and  _335
REMARK  135  A    between atoms: _334  and  _337
REMARK  136  A    between atoms: _337  and  _338
REMARK  137  A    between atoms: _341  and  _343
REMARK  138  A    between atoms: _343  and  _344
REMARK  139  A    between atoms: _343  and  _346
REMARK  140  A    between atoms: _349  and  _351
REMARK  141  A    between atoms: _351  and  _352
REMARK  142  A    between atoms: _351  and  _354
REMARK  143  A    between atoms: _354  and  _355
REMARK  144  A    between atoms: _355  and  _356
REMARK  145  A    between atoms: _356  and  _357
REMARK  146  A    between atoms: _357  and  _358
REMARK  147  A    between atoms: _362  and  _364
REMARK  148  A    between atoms: _364  and  _365
REMARK  149  A    between atoms: _364  and  _367
REMARK  150  A    between atoms: _367  and  _368
REMARK  151  A    between atoms: _368  and  _369
REMARK  152  A    between atoms: _371  and  _373
REMARK  153  A    between atoms: _373  and  _374
REMARK  154  A    between atoms: _373  and  _376
REMARK  155  A    between atoms: _376  and  _377
REMARK  156  A    between atoms: _380  and  _382
REMARK  157  A    between atoms: _382  and  _383
REMARK  158  A    between atoms: _385  and  _387
REMARK  159  A    between atoms: _387  and  _388
REMARK  160  A    between atoms: _390  and  _392
REMARK  161  A    between atoms: _392  and  _393
REMARK  162  A    between atoms: _392  and  _395
REMARK  163  A    between atoms: _395  and  _396
REMARK  164  A    between atoms: _399  and  _401
REMARK  165  A    between atoms: _401  and  _402
REMARK  166  A    between atoms: _404  and  _406
REMARK  167  A    between atoms: _406  and  _407
REMARK  168  A    between atoms: _409  and  _411
REMARK  169  A    between atoms: _411  and  _412
REMARK  170  A    between atoms: _411  and  _414
REMARK  171  A    between atoms: _414  and  _415
REMARK  172  A    between atoms: _421  and  _423
REMARK  173  A    between atoms: _423  and  _424
REMARK  174  A    between atoms: _423  and  _426
REMARK  175  A    between atoms: _426  and  _427
REMARK  176  A    between atoms: _430  and  _432
REMARK  177  A    between atoms: _432  and  _433
REMARK  178  A    between atoms: _432  and  _435
REMARK  179  A    between atoms: _438  and  _440
REMARK  180  A    between atoms: _440  and  _441
REMARK  181  A    between atoms: _440  and  _443
REMARK  182  A    between atoms: _443  and  _444
REMARK  183  A    between atoms: _448  and  _449
REMARK  184  A    between atoms: _454  and  _456
REMARK  185  A    between atoms: _456  and  _457
REMARK  186  A    between atoms: _456  and  _459
REMARK  187  A    between atoms: _459  and  _460
REMARK  188  A    between atoms: _464  and  _465
REMARK  189  A    between atoms: _470  and  _472
REMARK  190  A    between atoms: _472  and  _473
REMARK  191  A    between atoms: _472  and  _475
REMARK  192  A    between atoms: _478  and  _480
REMARK  193  A    between atoms: _480  and  _481
REMARK  194  A    between atoms: _480  and  _483
REMARK  195  A    between atoms: _483  and  _484
REMARK  196  A    between atoms: _489  and  _491
REMARK  197  A    between atoms: _491  and  _492
REMARK  198  A    between atoms: _491  and  _494
REMARK  199  A    between atoms: _494  and  _495
REMARK  200  A    between atoms: _498  and  _500
REMARK  201  A    between atoms: _500  and  _501
REMARK  202  A    between atoms: _500  and  _503
REMARK  203  A    between atoms: _503  and  _504
REMARK  204  A    between atoms: _507  and  _509
REMARK  205  A    between atoms: _509  and  _510
REMARK  206  A    between atoms: _512  and  _514
REMARK  207  A    between atoms: _514  and  _515
REMARK  208  A    between atoms: _514  and  _517
REMARK  209  A    between atoms: _517  and  _518
REMARK  210  A    between atoms: _518  and  _519
REMARK  211  A    between atoms: _519  and  _520
REMARK  212  A    between atoms: _529  and  _531
REMARK  213  A    between atoms: _531  and  _532
REMARK  214  A    between atoms: _531  and  _534
REMARK  215  A    between atoms: _534  and  _535
REMARK                            x       y       z     vdW  Elec       q    Type
REMARK                         _______ _______ _______ _____ _____    ______ ____
ROOT
ATOM      1  O   HOH     1      22.763  35.884  20.247  0.00  0.00    +0.000 OA
ENDROOT
TORSDOF 0
REMARK  Name = ../refined-set-2016/2qi5/2qi5_pocket.pdb
REMARK  215 active torsions:
REMARK  status: ('A' for Active; 'I' for Inactive)
REMARK    1  A    between atoms: _1  and  _3
REMARK    2  A    between atoms: _3  and  _4
REMARK    3  A    between atoms: _3  and  _6
REMARK    4  A    between atoms: _6  and  _7
REMARK    5  A    between atoms: _7  and  _8
REMARK    6  A    between atoms: _8  and  _9
REMARK    7  A    between atoms: _18  and  _20
REMARK    8  A    between atoms: _20  and  _21
REMARK    9  A    between atoms: _20  and  _23
REMARK   10  A    between atoms: _23  and  _24
REMARK   11  A    between atoms: _27  and  _29
REMARK   12  A    between atoms: _29  and  _30
REMARK   13  A    between atoms: _29  and  _32
REMARK   14  A    between atoms: _32  and  _33
REMARK   15  A    between atoms: _36  and  _38
REMARK   16  A    between atoms: _38  and  _39
REMARK   17  A    between atoms: _38  and  _41
REMARK   18  A    between atoms: _41  and  _42
REMARK   19  A    between atoms: _45  and  _47
REMARK   20  A    between atoms: _47  and  _48
REMARK   21  A    between atoms: _47  and  _50
REMARK   22  A    between atoms: _50  and  _51
REMARK   23  A    between atoms: _54  and  _56
REMARK   24  A    between atoms: _56  and  _57
REMARK   25  A    between atoms: _59  and  _61
REMARK   26  A    between atoms: _61  and  _62
REMARK   27  A    between atoms: _65  and  _67
REMARK   28  A    between atoms: _67  and  _68
REMARK   29  A    between atoms: _67  and  _70
REMARK   30  A    between atoms: _70  and  _71
REMARK   31  A    between atoms: _74  and  _76
REMARK   32  A    between atoms: _76  and  _77
REMARK   33  A    between atoms: _76  and  _79
REMARK   34  A    between atoms: _79  and  _80
REMARK   35  A    between atoms: _83  and  _85
REMARK   36  A    between atoms: _85  and  _86
REMARK   37  A    between atoms: _85  and  _88
REMARK   38  A    between atoms: _88  and  _89
REMARK   39  A    between atoms: _92  and  _94
REMARK   40  A    between atoms: _94  and  _95
REMARK   41  A    between atoms: _94  and  _97
REMARK   42  A    between atoms: _100  and  _102
REMARK   43  A    between atoms: _102  and  _103
REMARK   44  A    between atoms: _102  and  _105
REMARK   45  A    between atoms: _105  and  _106
REMARK   46  A    between atoms: _109  and  _111
REMARK   47  A    between atoms: _111  and  _112
REMARK   48  A    between atoms: _114  and  _116
REMARK   49  A    between atoms: _116  and  _117
REMARK   50  A    between atoms: _119  and  _121
REMARK   51  A    between atoms: _121  and  _122
REMARK   52  A    between atoms: _121  and  _124
REMARK   53  A    between atoms: _124  and  _125
REMARK   54  A    between atoms: _128  and  _130
REMARK   55  A    between atoms: _130  and  _131
REMARK   56  A    between atoms: _133  and  _135
REMARK   57  A    between atoms: _135  and  _136
REMARK   58  A    between atoms: _138  and  _140
REMARK   59  A    between atoms: _140  and  _141
REMARK   60  A    between atoms: _140  and  _143
REMARK   61  A    between atoms: _143  and  _144
REMARK   62  A    between atoms: _150  and  _152
REMARK   63  A    between atoms: _152  and  _153
REMARK   64  A    between atoms: _152  and  _155
REMARK   65  A    between atoms: _155  and  _156
REMARK   66  A    between atoms: _159  and  _161
REMARK   67  A    between atoms: _161  and  _162
REMARK   68  A    between atoms: _161  and  _164
REMARK   69  A    between atoms: _164  and  _165
REMARK   70  A    between atoms: _169  and  _170
REMARK   71  A    between atoms: _175  and  _177
REMARK   72  A    between atoms: _177  and  _178
REMARK   73  A    between atoms: _177  and  _180
REMARK   74  A    between atoms: _180  and  _181
REMARK   75  A    between atoms: _185  and  _186
REMARK   76  A    between atoms: _191  and  _193
REMARK   77  A    between atoms: _193  and  _194
REMARK   78  A    between atoms: _193  and  _196
REMARK   79  A    between atoms: _199  and  _201
REMARK   80  A    between atoms: _201  and  _202
REMARK   81  A    between atoms: _201  and  _204
REMARK   82  A    between atoms: _204  and  _205
REMARK   83  A    between atoms: _210  and  _212
REMARK   84  A    between atoms: _212  and  _213
REMARK   85  A    between atoms: _212  and  _215
REMARK   86  A    between atoms: _215  and  _216
REMARK   87  A    between atoms: _219  and  _221
REMARK   88  A    between atoms: _221  and  _222
REMARK   89  A    between atoms: _221  and  _224
REMARK   90  A    between atoms: _224  and  _225
REMARK   91  A    between atoms: _228  and  _230
REMARK   92  A    between atoms: _230  and  _231
REMARK   93  A    between atoms: _233  and  _235
REMARK   94  A    between atoms: _235  and  _236
REMARK   95  A    between atoms: _235  and  _238
REMARK   96  A    between atoms: _238  and  _239
REMARK   97  A    between atoms: _239  and  _240
REMARK   98  A    between atoms: _240  and  _241
REMARK   99  A    between atoms: _250  and  _252
REMARK  100  A    between atoms: _252  and  _253
REMARK  101  A    between atoms: _252  and  _255
REMARK  102  A    between atoms: _255  and  _256
REMARK  103  A    between atoms: _256  and  _257
REMARK  104  A    between atoms: _257  and  _258
REMARK  105  A    between atoms: _267  and  _269
REMARK  106  A    between atoms: _269  and  _270
REMARK  107  A    between atoms: _269  and  _272
REMARK  108  A    between atoms: _272  and  _273
REMARK  109  A    between atoms: _276  and  _278
REMARK  110  A    between atoms: _278  and  _279
REMARK  111  A    between atoms: _278  and  _281
REMARK  112  A    between atoms: _281  and  _282
REMARK  113  A    between atoms: _285  and  _287
REMARK  114  A    between atoms: _287  and  _288
REMARK  115  A    between atoms: _287  and  _290
REMARK  116  A    between atoms: _290  and  _291
REMARK  117  A    between atoms: _294  and  _296
REMARK  118  A    between atoms: _296  and  _297
REMARK  119  A    between atoms: _296  and  _299
REMARK  120  A    between atoms: _299  and  _300
REMARK  121  A    between atoms: _303  and  _305
REMARK  122  A    between atoms: _305  and  _306
REMARK  123  A    between atoms: _308  and  _310
REMARK  124  A    between atoms: _310  and  _311
REMARK  125  A    between atoms: _314  and  _316
REMARK  126  A    between atoms: _316  and  _317
REMARK  127  A    between atoms: _316  and  _319
REMARK  128  A    between atoms: _319  and  _320
REMARK  129  A    between atoms: _323  and  _325
REMARK  130  A    between atoms: _325  and  _326
REMARK  131  A    between atoms: _325  and  _328
REMARK  132  A    between atoms: _328  and  _329
REMARK  133  A    between atoms: _332  and  _334
REMARK  134  A    between atoms: _334  and  _335
REMARK  135  A    between atoms: _334  and  _337
REMARK  136  A    between atoms: _337  and  _338
REMARK  137  A    between atoms: _341  and  _343
REMARK  138  A    between atoms: _343  and  _344
REMARK  139  A    between atoms: _343  and  _346
REMARK  140  A    between atoms: _349  and  _351
REMARK  141  A    between atoms: _351  and  _352
REMARK  142  A    between atoms: _351  and  _354
REMARK  143  A    between atoms: _354  and  _355
REMARK  144  A    between atoms: _355  and  _356
REMARK  145  A    between atoms: _356  and  _357
REMARK  146  A    between atoms: _357  and  _358
REMARK  147  A    between atoms: _362  and  _364
REMARK  148  A    between atoms: _364  and  _365
REMARK  149  A    between atoms: _364  and  _367
REMARK  150  A    between atoms: _367  and  _368
REMARK  151  A    between atoms: _368  and  _369
REMARK  152  A    between atoms: _371  and  _373
REMARK  153  A    between atoms: _373  and  _374
REMARK  154  A    between atoms: _373  and  _376
REMARK  155  A    between atoms: _376  and  _377
REMARK  156  A    between atoms: _380  and  _382
REMARK  157  A    between atoms: _382  and  _383
REMARK  158  A    between atoms: _385  and  _387
REMARK  159  A    between atoms: _387  and  _388
REMARK  160  A    between atoms: _390  and  _392
REMARK  161  A    between atoms: _392  and  _393
REMARK  162  A    between atoms: _392  and  _395
REMARK  163  A    between atoms: _395  and  _396
REMARK  164  A    between atoms: _399  and  _401
REMARK  165  A    between atoms: _401  and  _402
REMARK  166  A    between atoms: _404  and  _406
REMARK  167  A    between atoms: _406  and  _407
REMARK  168  A    between atoms: _409  and  _411
REMARK  169  A    between atoms: _411  and  _412
REMARK  170  A    between atoms: _411  and  _414
REMARK  171  A    between atoms: _414  and  _415
REMARK  172  A    between atoms: _421  and  _423
REMARK  173  A    between atoms: _423  and  _424
REMARK  174  A    between atoms: _423  and  _426
REMARK  175  A    between atoms: _426  and  _427
REMARK  176  A    between atoms: _430  and  _432
REMARK  177  A    between atoms: _432  and  _433
REMARK  178  A    between atoms: _432  and  _435
REMARK  179  A    between atoms: _438  and  _440
REMARK  180  A    between atoms: _440  and  _441
REMARK  181  A    between atoms: _440  and  _443
REMARK  182  A    between atoms: _443  and  _444
REMARK  183  A    between atoms: _448  and  _449
REMARK  184  A    between atoms: _454  and  _456
REMARK  185  A    between atoms: _456  and  _457
REMARK  186  A    between atoms: _456  and  _459
REMARK  187  A    between atoms: _459  and  _460
REMARK  188  A    between atoms: _464  and  _465
REMARK  189  A    between atoms: _470  and  _472
REMARK  190  A    between atoms: _472  and  _473
REMARK  191  A    between atoms: _472  and  _475
REMARK  192  A    between atoms: _478  and  _480
REMARK  193  A    between atoms: _480  and  _481
REMARK  194  A    between atoms: _480  and  _483
REMARK  195  A    between atoms: _483  and  _484
REMARK  196  A    between atoms: _489  and  _491
REMARK  197  A    between atoms: _491  and  _492
REMARK  198  A    between atoms: _491  and  _494
REMARK  199  A    between atoms: _494  and  _495
REMARK  200  A    between atoms: _498  and  _500
REMARK  201  A    between atoms: _500  and  _501
REMARK  202  A    between atoms: _500  and  _503
REMARK  203  A    between atoms: _503  and  _504
REMARK  204  A    between atoms: _507  and  _509
REMARK  205  A    between atoms: _509  and  _510
REMARK  206  A    between atoms: _512  and  _514
REMARK  207  A    between atoms: _514  and  _515
REMARK  208  A    between atoms: _514  and  _517
REMARK  209  A    between atoms: _517  and  _518
REMARK  210  A    between atoms: _518  and  _519
REMARK  211  A    between atoms: _519  and  _520
REMARK  212  A    between atoms: _529  and  _531
REMARK  213  A    between atoms: _531  and  _532
REMARK  214  A    between atoms: _531  and  _534
REMARK  215  A    between atoms: _534  and  _535
REMARK                            x       y       z     vdW  Elec       q    Type
REMARK                         _______ _______ _______ _____ _____    ______ ____
ROOT
ATOM      1  O   HOH     1      18.518  34.713  18.994  0.00  0.00    +0.000 OA
ENDROOT
TORSDOF 0
REMARK  Name = ../refined-set-2016/2qi5/2qi5_pocket.pdb
REMARK  215 active torsions:
REMARK  status: ('A' for Active; 'I' for Inactive)
REMARK    1  A    between atoms: _1  and  _3
REMARK    2  A    between atoms: _3  and  _4
REMARK    3  A    between atoms: _3  and  _6
REMARK    4  A    between atoms: _6  and  _7
REMARK    5  A    between atoms: _7  and  _8
REMARK    6  A    between atoms: _8  and  _9
REMARK    7  A    between atoms: _18  and  _20
REMARK    8  A    between atoms: _20  and  _21
REMARK    9  A    between atoms: _20  and  _23
REMARK   10  A    between atoms: _23  and  _24
REMARK   11  A    between atoms: _27  and  _29
REMARK   12  A    between atoms: _29  and  _30
REMARK   13  A    between atoms: _29  and  _32
REMARK   14  A    between atoms: _32  and  _33
REMARK   15  A    between atoms: _36  and  _38
REMARK   16  A    between atoms: _38  and  _39
REMARK   17  A    between atoms: _38  and  _41
REMARK   18  A    between atoms: _41  and  _42
REMARK   19  A    between atoms: _45  and  _47
REMARK   20  A    between atoms: _47  and  _48
REMARK   21  A    between atoms: _47  and  _50
REMARK   22  A    between atoms: _50  and  _51
REMARK   23  A    between atoms: _54  and  _56
REMARK   24  A    between atoms: _56  and  _57
REMARK   25  A    between atoms: _59  and  _61
REMARK   26  A    between atoms: _61  and  _62
REMARK   27  A    between atoms: _65  and  _67
REMARK   28  A    between atoms: _67  and  _68
REMARK   29  A    between atoms: _67  and  _70
REMARK   30  A    between atoms: _70  and  _71
REMARK   31  A    between atoms: _74  and  _76
REMARK   32  A    between atoms: _76  and  _77
REMARK   33  A    between atoms: _76  and  _79
REMARK   34  A    between atoms: _79  and  _80
REMARK   35  A    between atoms: _83  and  _85
REMARK   36  A    between atoms: _85  and  _86
REMARK   37  A    between atoms: _85  and  _88
REMARK   38  A    between atoms: _88  and  _89
REMARK   39  A    between atoms: _92  and  _94
REMARK   40  A    between atoms: _94  and  _95
REMARK   41  A    between atoms: _94  and  _97
REMARK   42  A    between atoms: _100  and  _102
REMARK   43  A    between atoms: _102  and  _103
REMARK   44  A    between atoms: _102  and  _105
REMARK   45  A    between atoms: _105  and  _106
REMARK   46  A    between atoms: _109  and  _111
REMARK   47  A    between atoms: _111  and  _112
REMARK   48  A    between atoms: _114  and  _116
REMARK   49  A    between atoms: _116  and  _117
REMARK   50  A    between atoms: _119  and  _121
REMARK   51  A    between atoms: _121  and  _122
REMARK   52  A    between atoms: _121  and  _124
REMARK   53  A    between atoms: _124  and  _125
REMARK   54  A    between atoms: _128  and  _130
REMARK   55  A    between atoms: _130  and  _131
REMARK   56  A    between atoms: _133  and  _135
REMARK   57  A    between atoms: _135  and  _136
REMARK   58  A    between atoms: _138  and  _140
REMARK   59  A    between atoms: _140  and  _141
REMARK   60  A    between atoms: _140  and  _143
REMARK   61  A    between atoms: _143  and  _144
REMARK   62  A    between atoms: _150  and  _152
REMARK   63  A    between atoms: _152  and  _153
REMARK   64  A    between atoms: _152  and  _155
REMARK   65  A    between atoms: _155  and  _156
REMARK   66  A    between atoms: _159  and  _161
REMARK   67  A    between atoms: _161  and  _162
REMARK   68  A    between atoms: _161  and  _164
REMARK   69  A    between atoms: _164  and  _165
REMARK   70  A    between atoms: _169  and  _170
REMARK   71  A    between atoms: _175  and  _177
REMARK   72  A    between atoms: _177  and  _178
REMARK   73  A    between atoms: _177  and  _180
REMARK   74  A    between atoms: _180  and  _181
REMARK   75  A    between atoms: _185  and  _186
REMARK   76  A    between atoms: _191  and  _193
REMARK   77  A    between atoms: _193  and  _194
REMARK   78  A    between atoms: _193  and  _196
REMARK   79  A    between atoms: _199  and  _201
REMARK   80  A    between atoms: _201  and  _202
REMARK   81  A    between atoms: _201  and  _204
REMARK   82  A    between atoms: _204  and  _205
REMARK   83  A    between atoms: _210  and  _212
REMARK   84  A    between atoms: _212  and  _213
REMARK   85  A    between atoms: _212  and  _215
REMARK   86  A    between atoms: _215  and  _216
REMARK   87  A    between atoms: _219  and  _221
REMARK   88  A    between atoms: _221  and  _222
REMARK   89  A    between atoms: _221  and  _224
REMARK   90  A    between atoms: _224  and  _225
REMARK   91  A    between atoms: _228  and  _230
REMARK   92  A    between atoms: _230  and  _231
REMARK   93  A    between atoms: _233  and  _235
REMARK   94  A    between atoms: _235  and  _236
REMARK   95  A    between atoms: _235  and  _238
REMARK   96  A    between atoms: _238  and  _239
REMARK   97  A    between atoms: _239  and  _240
REMARK   98  A    between atoms: _240  and  _241
REMARK   99  A    between atoms: _250  and  _252
REMARK  100  A    between atoms: _252  and  _253
REMARK  101  A    between atoms: _252  and  _255
REMARK  102  A    between atoms: _255  and  _256
REMARK  103  A    between atoms: _256  and  _257
REMARK  104  A    between atoms: _257  and  _258
REMARK  105  A    between atoms: _267  and  _269
REMARK  106  A    between atoms: _269  and  _270
REMARK  107  A    between atoms: _269  and  _272
REMARK  108  A    between atoms: _272  and  _273
REMARK  109  A    between atoms: _276  and  _278
REMARK  110  A    between atoms: _278  and  _279
REMARK  111  A    between atoms: _278  and  _281
REMARK  112  A    between atoms: _281  and  _282
REMARK  113  A    between atoms: _285  and  _287
REMARK  114  A    between atoms: _287  and  _288
REMARK  115  A    between atoms: _287  and  _290
REMARK  116  A    between atoms: _290  and  _291
REMARK  117  A    between atoms: _294  and  _296
REMARK  118  A    between atoms: _296  and  _297
REMARK  119  A    between atoms: _296  and  _299
REMARK  120  A    between atoms: _299  and  _300
REMARK  121  A    between atoms: _303  and  _305
REMARK  122  A    between atoms: _305  and  _306
REMARK  123  A    between atoms: _308  and  _310
REMARK  124  A    between atoms: _310  and  _311
REMARK  125  A    between atoms: _314  and  _316
REMARK  126  A    between atoms: _316  and  _317
REMARK  127  A    between atoms: _316  and  _319
REMARK  128  A    between atoms: _319  and  _320
REMARK  129  A    between atoms: _323  and  _325
REMARK  130  A    between atoms: _325  and  _326
REMARK  131  A    between atoms: _325  and  _328
REMARK  132  A    between atoms: _328  and  _329
REMARK  133  A    between atoms: _332  and  _334
REMARK  134  A    between atoms: _334  and  _335
REMARK  135  A    between atoms: _334  and  _337
REMARK  136  A    between atoms: _337  and  _338
REMARK  137  A    between atoms: _341  and  _343
REMARK  138  A    between atoms: _343  and  _344
REMARK  139  A    between atoms: _343  and  _346
REMARK  140  A    between atoms: _349  and  _351
REMARK  141  A    between atoms: _351  and  _352
REMARK  142  A    between atoms: _351  and  _354
REMARK  143  A    between atoms: _354  and  _355
REMARK  144  A    between atoms: _355  and  _356
REMARK  145  A    between atoms: _356  and  _357
REMARK  146  A    between atoms: _357  and  _358
REMARK  147  A    between atoms: _362  and  _364
REMARK  148  A    between atoms: _364  and  _365
REMARK  149  A    between atoms: _364  and  _367
REMARK  150  A    between atoms: _367  and  _368
REMARK  151  A    between atoms: _368  and  _369
REMARK  152  A    between atoms: _371  and  _373
REMARK  153  A    between atoms: _373  and  _374
REMARK  154  A    between atoms: _373  and  _376
REMARK  155  A    between atoms: _376  and  _377
REMARK  156  A    between atoms: _380  and  _382
REMARK  157  A    between atoms: _382  and  _383
REMARK  158  A    between atoms: _385  and  _387
REMARK  159  A    between atoms: _387  and  _388
REMARK  160  A    between atoms: _390  and  _392
REMARK  161  A    between atoms: _392  and  _393
REMARK  162  A    between atoms: _392  and  _395
REMARK  163  A    between atoms: _395  and  _396
REMARK  164  A    between atoms: _399  and  _401
REMARK  165  A    between atoms: _401  and  _402
REMARK  166  A    between atoms: _404  and  _406
REMARK  167  A    between atoms: _406  and  _407
REMARK  168  A    between atoms: _409  and  _411
REMARK  169  A    between atoms: _411  and  _412
REMARK  170  A    between atoms: _411  and  _414
REMARK  171  A    between atoms: _414  and  _415
REMARK  172  A    between atoms: _421  and  _423
REMARK  173  A    between atoms: _423  and  _424
REMARK  174  A    between atoms: _423  and  _426
REMARK  175  A    between atoms: _426  and  _427
REMARK  176  A    between atoms: _430  and  _432
REMARK  177  A    between atoms: _432  and  _433
REMARK  178  A    between atoms: _432  and  _435
REMARK  179  A    between atoms: _438  and  _440
REMARK  180  A    between atoms: _440  and  _441
REMARK  181  A    between atoms: _440  and  _443
REMARK  182  A    between atoms: _443  and  _444
REMARK  183  A    between atoms: _448  and  _449
REMARK  184  A    between atoms: _454  and  _456
REMARK  185  A    between atoms: _456  and  _457
REMARK  186  A    between atoms: _456  and  _459
REMARK  187  A    between atoms: _459  and  _460
REMARK  188  A    between atoms: _464  and  _465
REMARK  189  A    between atoms: _470  and  _472
REMARK  190  A    between atoms: _472  and  _473
REMARK  191  A    between atoms: _472  and  _475
REMARK  192  A    between atoms: _478  and  _480
REMARK  193  A    between atoms: _480  and  _481
REMARK  194  A    between atoms: _480  and  _483
REMARK  195  A    between atoms: _483  and  _484
REMARK  196  A    between atoms: _489  and  _491
REMARK  197  A    between atoms: _491  and  _492
REMARK  198  A    between atoms: _491  and  _494
REMARK  199  A    between atoms: _494  and  _495
REMARK  200  A    between atoms: _498  and  _500
REMARK  201  A    between atoms: _500  and  _501
REMARK  202  A    between atoms: _500  and  _503
REMARK  203  A    between atoms: _503  and  _504
REMARK  204  A    between atoms: _507  and  _509
REMARK  205  A    between atoms: _509  and  _510
REMARK  206  A    between atoms: _512  and  _514
REMARK  207  A    between atoms: _514  and  _515
REMARK  208  A    between atoms: _514  and  _517
REMARK  209  A    between atoms: _517  and  _518
REMARK  210  A    between atoms: _518  and  _519
REMARK  211  A    between atoms: _519  and  _520
REMARK  212  A    between atoms: _529  and  _531
REMARK  213  A    between atoms: _531  and  _532
REMARK  214  A    between atoms: _531  and  _534
REMARK  215  A    between atoms: _534  and  _535
REMARK                            x       y       z     vdW  Elec       q    Type
REMARK                         _______ _______ _______ _____ _____    ______ ____
ROOT
ATOM      1  O   HOH     1       9.217  34.753  21.207  0.00  0.00    +0.000 OA
ENDROOT
TORSDOF 0
REMARK  Name = ../refined-set-2016/2qi5/2qi5_pocket.pdb
REMARK  215 active torsions:
REMARK  status: ('A' for Active; 'I' for Inactive)
REMARK    1  A    between atoms: _1  and  _3
REMARK    2  A    between atoms: _3  and  _4
REMARK    3  A    between atoms: _3  and  _6
REMARK    4  A    between atoms: _6  and  _7
REMARK    5  A    between atoms: _7  and  _8
REMARK    6  A    between atoms: _8  and  _9
REMARK    7  A    between atoms: _18  and  _20
REMARK    8  A    between atoms: _20  and  _21
REMARK    9  A    between atoms: _20  and  _23
REMARK   10  A    between atoms: _23  and  _24
REMARK   11  A    between atoms: _27  and  _29
REMARK   12  A    between atoms: _29  and  _30
REMARK   13  A    between atoms: _29  and  _32
REMARK   14  A    between atoms: _32  and  _33
REMARK   15  A    between atoms: _36  and  _38
REMARK   16  A    between atoms: _38  and  _39
REMARK   17  A    between atoms: _38  and  _41
REMARK   18  A    between atoms: _41  and  _42
REMARK   19  A    between atoms: _45  and  _47
REMARK   20  A    between atoms: _47  and  _48
REMARK   21  A    between atoms: _47  and  _50
REMARK   22  A    between atoms: _50  and  _51
REMARK   23  A    between atoms: _54  and  _56
REMARK   24  A    between atoms: _56  and  _57
REMARK   25  A    between atoms: _59  and  _61
REMARK   26  A    between atoms: _61  and  _62
REMARK   27  A    between atoms: _65  and  _67
REMARK   28  A    between atoms: _67  and  _68
REMARK   29  A    between atoms: _67  and  _70
REMARK   30  A    between atoms: _70  and  _71
REMARK   31  A    between atoms: _74  and  _76
REMARK   32  A    between atoms: _76  and  _77
REMARK   33  A    between atoms: _76  and  _79
REMARK   34  A    between atoms: _79  and  _80
REMARK   35  A    between atoms: _83  and  _85
REMARK   36  A    between atoms: _85  and  _86
REMARK   37  A    between atoms: _85  and  _88
REMARK   38  A    between atoms: _88  and  _89
REMARK   39  A    between atoms: _92  and  _94
REMARK   40  A    between atoms: _94  and  _95
REMARK   41  A    between atoms: _94  and  _97
REMARK   42  A    between atoms: _100  and  _102
REMARK   43  A    between atoms: _102  and  _103
REMARK   44  A    between atoms: _102  and  _105
REMARK   45  A    between atoms: _105  and  _106
REMARK   46  A    between atoms: _109  and  _111
REMARK   47  A    between atoms: _111  and  _112
REMARK   48  A    between atoms: _114  and  _116
REMARK   49  A    between atoms: _116  and  _117
REMARK   50  A    between atoms: _119  and  _121
REMARK   51  A    between atoms: _121  and  _122
REMARK   52  A    between atoms: _121  and  _124
REMARK   53  A    between atoms: _124  and  _125
REMARK   54  A    between atoms: _128  and  _130
REMARK   55  A    between atoms: _130  and  _131
REMARK   56  A    between atoms: _133  and  _135
REMARK   57  A    between atoms: _135  and  _136
REMARK   58  A    between atoms: _138  and  _140
REMARK   59  A    between atoms: _140  and  _141
REMARK   60  A    between atoms: _140  and  _143
REMARK   61  A    between atoms: _143  and  _144
REMARK   62  A    between atoms: _150  and  _152
REMARK   63  A    between atoms: _152  and  _153
REMARK   64  A    between atoms: _152  and  _155
REMARK   65  A    between atoms: _155  and  _156
REMARK   66  A    between atoms: _159  and  _161
REMARK   67  A    between atoms: _161  and  _162
REMARK   68  A    between atoms: _161  and  _164
REMARK   69  A    between atoms: _164  and  _165
REMARK   70  A    between atoms: _169  and  _170
REMARK   71  A    between atoms: _175  and  _177
REMARK   72  A    between atoms: _177  and  _178
REMARK   73  A    between atoms: _177  and  _180
REMARK   74  A    between atoms: _180  and  _181
REMARK   75  A    between atoms: _185  and  _186
REMARK   76  A    between atoms: _191  and  _193
REMARK   77  A    between atoms: _193  and  _194
REMARK   78  A    between atoms: _193  and  _196
REMARK   79  A    between atoms: _199  and  _201
REMARK   80  A    between atoms: _201  and  _202
REMARK   81  A    between atoms: _201  and  _204
REMARK   82  A    between atoms: _204  and  _205
REMARK   83  A    between atoms: _210  and  _212
REMARK   84  A    between atoms: _212  and  _213
REMARK   85  A    between atoms: _212  and  _215
REMARK   86  A    between atoms: _215  and  _216
REMARK   87  A    between atoms: _219  and  _221
REMARK   88  A    between atoms: _221  and  _222
REMARK   89  A    between atoms: _221  and  _224
REMARK   90  A    between atoms: _224  and  _225
REMARK   91  A    between atoms: _228  and  _230
REMARK   92  A    between atoms: _230  and  _231
REMARK   93  A    between atoms: _233  and  _235
REMARK   94  A    between atoms: _235  and  _236
REMARK   95  A    between atoms: _235  and  _238
REMARK   96  A    between atoms: _238  and  _239
REMARK   97  A    between atoms: _239  and  _240
REMARK   98  A    between atoms: _240  and  _241
REMARK   99  A    between atoms: _250  and  _252
REMARK  100  A    between atoms: _252  and  _253
REMARK  101  A    between atoms: _252  and  _255
REMARK  102  A    between atoms: _255  and  _256
REMARK  103  A    between atoms: _256  and  _257
REMARK  104  A    between atoms: _257  and  _258
REMARK  105  A    between atoms: _267  and  _269
REMARK  106  A    between atoms: _269  and  _270
REMARK  107  A    between atoms: _269  and  _272
REMARK  108  A    between atoms: _272  and  _273
REMARK  109  A    between atoms: _276  and  _278
REMARK  110  A    between atoms: _278  and  _279
REMARK  111  A    between atoms: _278  and  _281
REMARK  112  A    between atoms: _281  and  _282
REMARK  113  A    between atoms: _285  and  _287
REMARK  114  A    between atoms: _287  and  _288
REMARK  115  A    between atoms: _287  and  _290
REMARK  116  A    between atoms: _290  and  _291
REMARK  117  A    between atoms: _294  and  _296
REMARK  118  A    between atoms: _296  and  _297
REMARK  119  A    between atoms: _296  and  _299
REMARK  120  A    between atoms: _299  and  _300
REMARK  121  A    between atoms: _303  and  _305
REMARK  122  A    between atoms: _305  and  _306
REMARK  123  A    between atoms: _308  and  _310
REMARK  124  A    between atoms: _310  and  _311
REMARK  125  A    between atoms: _314  and  _316
REMARK  126  A    between atoms: _316  and  _317
REMARK  127  A    between atoms: _316  and  _319
REMARK  128  A    between atoms: _319  and  _320
REMARK  129  A    between atoms: _323  and  _325
REMARK  130  A    between atoms: _325  and  _326
REMARK  131  A    between atoms: _325  and  _328
REMARK  132  A    between atoms: _328  and  _329
REMARK  133  A    between atoms: _332  and  _334
REMARK  134  A    between atoms: _334  and  _335
REMARK  135  A    between atoms: _334  and  _337
REMARK  136  A    between atoms: _337  and  _338
REMARK  137  A    between atoms: _341  and  _343
REMARK  138  A    between atoms: _343  and  _344
REMARK  139  A    between atoms: _343  and  _346
REMARK  140  A    between atoms: _349  and  _351
REMARK  141  A    between atoms: _351  and  _352
REMARK  142  A    between atoms: _351  and  _354
REMARK  143  A    between atoms: _354  and  _355
REMARK  144  A    between atoms: _355  and  _356
REMARK  145  A    between atoms: _356  and  _357
REMARK  146  A    between atoms: _357  and  _358
REMARK  147  A    between atoms: _362  and  _364
REMARK  148  A    between atoms: _364  and  _365
REMARK  149  A    between atoms: _364  and  _367
REMARK  150  A    between atoms: _367  and  _368
REMARK  151  A    between atoms: _368  and  _369
REMARK  152  A    between atoms: _371  and  _373
REMARK  153  A    between atoms: _373  and  _374
REMARK  154  A    between atoms: _373  and  _376
REMARK  155  A    between atoms: _376  and  _377
REMARK  156  A    between atoms: _380  and  _382
REMARK  157  A    between atoms: _382  and  _383
REMARK  158  A    between atoms: _385  and  _387
REMARK  159  A    between atoms: _387  and  _388
REMARK  160  A    between atoms: _390  and  _392
REMARK  161  A    between atoms: _392  and  _393
REMARK  162  A    between atoms: _392  and  _395
REMARK  163  A    between atoms: _395  and  _396
REMARK  164  A    between atoms: _399  and  _401
REMARK  165  A    between atoms: _401  and  _402
REMARK  166  A    between atoms: _404  and  _406
REMARK  167  A    between atoms: _406  and  _407
REMARK  168  A    between atoms: _409  and  _411
REMARK  169  A    between atoms: _411  and  _412
REMARK  170  A    between atoms: _411  and  _414
REMARK  171  A    between atoms: _414  and  _415
REMARK  172  A    between atoms: _421  and  _423
REMARK  173  A    between atoms: _423  and  _424
REMARK  174  A    between atoms: _423  and  _426
REMARK  175  A    between atoms: _426  and  _427
REMARK  176  A    between atoms: _430  and  _432
REMARK  177  A    between atoms: _432  and  _433
REMARK  178  A    between atoms: _432  and  _435
REMARK  179  A    between atoms: _438  and  _440
REMARK  180  A    between atoms: _440  and  _441
REMARK  181  A    between atoms: _440  and  _443
REMARK  182  A    between atoms: _443  and  _444
REMARK  183  A    between atoms: _448  and  _449
REMARK  184  A    between atoms: _454  and  _456
REMARK  185  A    between atoms: _456  and  _457
REMARK  186  A    between atoms: _456  and  _459
REMARK  187  A    between atoms: _459  and  _460
REMARK  188  A    between atoms: _464  and  _465
REMARK  189  A    between atoms: _470  and  _472
REMARK  190  A    between atoms: _472  and  _473
REMARK  191  A    between atoms: _472  and  _475
REMARK  192  A    between atoms: _478  and  _480
REMARK  193  A    between atoms: _480  and  _481
REMARK  194  A    between atoms: _480  and  _483
REMARK  195  A    between atoms: _483  and  _484
REMARK  196  A    between atoms: _489  and  _491
REMARK  197  A    between atoms: _491  and  _492
REMARK  198  A    between atoms: _491  and  _494
REMARK  199  A    between atoms: _494  and  _495
REMARK  200  A    between atoms: _498  and  _500
REMARK  201  A    between atoms: _500  and  _501
REMARK  202  A    between atoms: _500  and  _503
REMARK  203  A    between atoms: _503  and  _504
REMARK  204  A    between atoms: _507  and  _509
REMARK  205  A    between atoms: _509  and  _510
REMARK  206  A    between atoms: _512  and  _514
REMARK  207  A    between atoms: _514  and  _515
REMARK  208  A    between atoms: _514  and  _517
REMARK  209  A    between atoms: _517  and  _518
REMARK  210  A    between atoms: _518  and  _519
REMARK  211  A    between atoms: _519  and  _520
REMARK  212  A    between atoms: _529  and  _531
REMARK  213  A    between atoms: _531  and  _532
REMARK  214  A    between atoms: _531  and  _534
REMARK  215  A    between atoms: _534  and  _535
REMARK                            x       y       z     vdW  Elec       q    Type
REMARK                         _______ _______ _______ _____ _____    ______ ____
ROOT
ATOM      1  O   HOH     1      20.400  32.469  23.206  0.00  0.00    +0.000 OA
ENDROOT
TORSDOF 0
REMARK  Name = ../refined-set-2016/2qi5/2qi5_pocket.pdb
REMARK  215 active torsions:
REMARK  status: ('A' for Active; 'I' for Inactive)
REMARK    1  A    between atoms: _1  and  _3
REMARK    2  A    between atoms: _3  and  _4
REMARK    3  A    between atoms: _3  and  _6
REMARK    4  A    between atoms: _6  and  _7
REMARK    5  A    between atoms: _7  and  _8
REMARK    6  A    between atoms: _8  and  _9
REMARK    7  A    between atoms: _18  and  _20
REMARK    8  A    between atoms: _20  and  _21
REMARK    9  A    between atoms: _20  and  _23
REMARK   10  A    between atoms: _23  and  _24
REMARK   11  A    between atoms: _27  and  _29
REMARK   12  A    between atoms: _29  and  _30
REMARK   13  A    between atoms: _29  and  _32
REMARK   14  A    between atoms: _32  and  _33
REMARK   15  A    between atoms: _36  and  _38
REMARK   16  A    between atoms: _38  and  _39
REMARK   17  A    between atoms: _38  and  _41
REMARK   18  A    between atoms: _41  and  _42
REMARK   19  A    between atoms: _45  and  _47
REMARK   20  A    between atoms: _47  and  _48
REMARK   21  A    between atoms: _47  and  _50
REMARK   22  A    between atoms: _50  and  _51
REMARK   23  A    between atoms: _54  and  _56
REMARK   24  A    between atoms: _56  and  _57
REMARK   25  A    between atoms: _59  and  _61
REMARK   26  A    between atoms: _61  and  _62
REMARK   27  A    between atoms: _65  and  _67
REMARK   28  A    between atoms: _67  and  _68
REMARK   29  A    between atoms: _67  and  _70
REMARK   30  A    between atoms: _70  and  _71
REMARK   31  A    between atoms: _74  and  _76
REMARK   32  A    between atoms: _76  and  _77
REMARK   33  A    between atoms: _76  and  _79
REMARK   34  A    between atoms: _79  and  _80
REMARK   35  A    between atoms: _83  and  _85
REMARK   36  A    between atoms: _85  and  _86
REMARK   37  A    between atoms: _85  and  _88
REMARK   38  A    between atoms: _88  and  _89
REMARK   39  A    between atoms: _92  and  _94
REMARK   40  A    between atoms: _94  and  _95
REMARK   41  A    between atoms: _94  and  _97
REMARK   42  A    between atoms: _100  and  _102
REMARK   43  A    between atoms: _102  and  _103
REMARK   44  A    between atoms: _102  and  _105
REMARK   45  A    between atoms: _105  and  _106
REMARK   46  A    between atoms: _109  and  _111
REMARK   47  A    between atoms: _111  and  _112
REMARK   48  A    between atoms: _114  and  _116
REMARK   49  A    between atoms: _116  and  _117
REMARK   50  A    between atoms: _119  and  _121
REMARK   51  A    between atoms: _121  and  _122
REMARK   52  A    between atoms: _121  and  _124
REMARK   53  A    between atoms: _124  and  _125
REMARK   54  A    between atoms: _128  and  _130
REMARK   55  A    between atoms: _130  and  _131
REMARK   56  A    between atoms: _133  and  _135
REMARK   57  A    between atoms: _135  and  _136
REMARK   58  A    between atoms: _138  and  _140
REMARK   59  A    between atoms: _140  and  _141
REMARK   60  A    between atoms: _140  and  _143
REMARK   61  A    between atoms: _143  and  _144
REMARK   62  A    between atoms: _150  and  _152
REMARK   63  A    between atoms: _152  and  _153
REMARK   64  A    between atoms: _152  and  _155
REMARK   65  A    between atoms: _155  and  _156
REMARK   66  A    between atoms: _159  and  _161
REMARK   67  A    between atoms: _161  and  _162
REMARK   68  A    between atoms: _161  and  _164
REMARK   69  A    between atoms: _164  and  _165
REMARK   70  A    between atoms: _169  and  _170
REMARK   71  A    between atoms: _175  and  _177
REMARK   72  A    between atoms: _177  and  _178
REMARK   73  A    between atoms: _177  and  _180
REMARK   74  A    between atoms: _180  and  _181
REMARK   75  A    between atoms: _185  and  _186
REMARK   76  A    between atoms: _191  and  _193
REMARK   77  A    between atoms: _193  and  _194
REMARK   78  A    between atoms: _193  and  _196
REMARK   79  A    between atoms: _199  and  _201
REMARK   80  A    between atoms: _201  and  _202
REMARK   81  A    between atoms: _201  and  _204
REMARK   82  A    between atoms: _204  and  _205
REMARK   83  A    between atoms: _210  and  _212
REMARK   84  A    between atoms: _212  and  _213
REMARK   85  A    between atoms: _212  and  _215
REMARK   86  A    between atoms: _215  and  _216
REMARK   87  A    between atoms: _219  and  _221
REMARK   88  A    between atoms: _221  and  _222
REMARK   89  A    between atoms: _221  and  _224
REMARK   90  A    between atoms: _224  and  _225
REMARK   91  A    between atoms: _228  and  _230
REMARK   92  A    between atoms: _230  and  _231
REMARK   93  A    between atoms: _233  and  _235
REMARK   94  A    between atoms: _235  and  _236
REMARK   95  A    between atoms: _235  and  _238
REMARK   96  A    between atoms: _238  and  _239
REMARK   97  A    between atoms: _239  and  _240
REMARK   98  A    between atoms: _240  and  _241
REMARK   99  A    between atoms: _250  and  _252
REMARK  100  A    between atoms: _252  and  _253
REMARK  101  A    between atoms: _252  and  _255
REMARK  102  A    between atoms: _255  and  _256
REMARK  103  A    between atoms: _256  and  _257
REMARK  104  A    between atoms: _257  and  _258
REMARK  105  A    between atoms: _267  and  _269
REMARK  106  A    between atoms: _269  and  _270
REMARK  107  A    between atoms: _269  and  _272
REMARK  108  A    between atoms: _272  and  _273
REMARK  109  A    between atoms: _276  and  _278
REMARK  110  A    between atoms: _278  and  _279
REMARK  111  A    between atoms: _278  and  _281
REMARK  112  A    between atoms: _281  and  _282
REMARK  113  A    between atoms: _285  and  _287
REMARK  114  A    between atoms: _287  and  _288
REMARK  115  A    between atoms: _287  and  _290
REMARK  116  A    between atoms: _290  and  _291
REMARK  117  A    between atoms: _294  and  _296
REMARK  118  A    between atoms: _296  and  _297
REMARK  119  A    between atoms: _296  and  _299
REMARK  120  A    between atoms: _299  and  _300
REMARK  121  A    between atoms: _303  and  _305
REMARK  122  A    between atoms: _305  and  _306
REMARK  123  A    between atoms: _308  and  _310
REMARK  124  A    between atoms: _310  and  _311
REMARK  125  A    between atoms: _314  and  _316
REMARK  126  A    between atoms: _316  and  _317
REMARK  127  A    between atoms: _316  and  _319
REMARK  128  A    between atoms: _319  and  _320
REMARK  129  A    between atoms: _323  and  _325
REMARK  130  A    between atoms: _325  and  _326
REMARK  131  A    between atoms: _325  and  _328
REMARK  132  A    between atoms: _328  and  _329
REMARK  133  A    between atoms: _332  and  _334
REMARK  134  A    between atoms: _334  and  _335
REMARK  135  A    between atoms: _334  and  _337
REMARK  136  A    between atoms: _337  and  _338
REMARK  137  A    between atoms: _341  and  _343
REMARK  138  A    between atoms: _343  and  _344
REMARK  139  A    between atoms: _343  and  _346
REMARK  140  A    between atoms: _349  and  _351
REMARK  141  A    between atoms: _351  and  _352
REMARK  142  A    between atoms: _351  and  _354
REMARK  143  A    between atoms: _354  and  _355
REMARK  144  A    between atoms: _355  and  _356
REMARK  145  A    between atoms: _356  and  _357
REMARK  146  A    between atoms: _357  and  _358
REMARK  147  A    between atoms: _362  and  _364
REMARK  148  A    between atoms: _364  and  _365
REMARK  149  A    between atoms: _364  and  _367
REMARK  150  A    between atoms: _367  and  _368
REMARK  151  A    between atoms: _368  and  _369
REMARK  152  A    between atoms: _371  and  _373
REMARK  153  A    between atoms: _373  and  _374
REMARK  154  A    between atoms: _373  and  _376
REMARK  155  A    between atoms: _376  and  _377
REMARK  156  A    between atoms: _380  and  _382
REMARK  157  A    between atoms: _382  and  _383
REMARK  158  A    between atoms: _385  and  _387
REMARK  159  A    between atoms: _387  and  _388
REMARK  160  A    between atoms: _390  and  _392
REMARK  161  A    between atoms: _392  and  _393
REMARK  162  A    between atoms: _392  and  _395
REMARK  163  A    between atoms: _395  and  _396
REMARK  164  A    between atoms: _399  and  _401
REMARK  165  A    between atoms: _401  and  _402
REMARK  166  A    between atoms: _404  and  _406
REMARK  167  A    between atoms: _406  and  _407
REMARK  168  A    between atoms: _409  and  _411
REMARK  169  A    between atoms: _411  and  _412
REMARK  170  A    between atoms: _411  and  _414
REMARK  171  A    between atoms: _414  and  _415
REMARK  172  A    between atoms: _421  and  _423
REMARK  173  A    between atoms: _423  and  _424
REMARK  174  A    between atoms: _423  and  _426
REMARK  175  A    between atoms: _426  and  _427
REMARK  176  A    between atoms: _430  and  _432
REMARK  177  A    between atoms: _432  and  _433
REMARK  178  A    between atoms: _432  and  _435
REMARK  179  A    between atoms: _438  and  _440
REMARK  180  A    between atoms: _440  and  _441
REMARK  181  A    between atoms: _440  and  _443
REMARK  182  A    between atoms: _443  and  _444
REMARK  183  A    between atoms: _448  and  _449
REMARK  184  A    between atoms: _454  and  _456
REMARK  185  A    between atoms: _456  and  _457
REMARK  186  A    between atoms: _456  and  _459
REMARK  187  A    between atoms: _459  and  _460
REMARK  188  A    between atoms: _464  and  _465
REMARK  189  A    between atoms: _470  and  _472
REMARK  190  A    between atoms: _472  and  _473
REMARK  191  A    between atoms: _472  and  _475
REMARK  192  A    between atoms: _478  and  _480
REMARK  193  A    between atoms: _480  and  _481
REMARK  194  A    between atoms: _480  and  _483
REMARK  195  A    between atoms: _483  and  _484
REMARK  196  A    between atoms: _489  and  _491
REMARK  197  A    between atoms: _491  and  _492
REMARK  198  A    between atoms: _491  and  _494
REMARK  199  A    between atoms: _494  and  _495
REMARK  200  A    between atoms: _498  and  _500
REMARK  201  A    between atoms: _500  and  _501
REMARK  202  A    between atoms: _500  and  _503
REMARK  203  A    between atoms: _503  and  _504
REMARK  204  A    between atoms: _507  and  _509
REMARK  205  A    between atoms: _509  and  _510
REMARK  206  A    between atoms: _512  and  _514
REMARK  207  A    between atoms: _514  and  _515
REMARK  208  A    between atoms: _514  and  _517
REMARK  209  A    between atoms: _517  and  _518
REMARK  210  A    between atoms: _518  and  _519
REMARK  211  A    between atoms: _519  and  _520
REMARK  212  A    between atoms: _529  and  _531
REMARK  213  A    between atoms: _531  and  _532
REMARK  214  A    between atoms: _531  and  _534
REMARK  215  A    between atoms: _534  and  _535
REMARK                            x       y       z     vdW  Elec       q    Type
REMARK                         _______ _______ _______ _____ _____    ______ ____
ROOT
ATOM      1  O   HOH     1      20.843  34.226  21.176  0.00  0.00    +0.000 OA
ENDROOT
TORSDOF 0
REMARK  Name = ../refined-set-2016/2qi5/2qi5_pocket.pdb
REMARK  215 active torsions:
REMARK  status: ('A' for Active; 'I' for Inactive)
REMARK    1  A    between atoms: _1  and  _3
REMARK    2  A    between atoms: _3  and  _4
REMARK    3  A    between atoms: _3  and  _6
REMARK    4  A    between atoms: _6  and  _7
REMARK    5  A    between atoms: _7  and  _8
REMARK    6  A    between atoms: _8  and  _9
REMARK    7  A    between atoms: _18  and  _20
REMARK    8  A    between atoms: _20  and  _21
REMARK    9  A    between atoms: _20  and  _23
REMARK   10  A    between atoms: _23  and  _24
REMARK   11  A    between atoms: _27  and  _29
REMARK   12  A    between atoms: _29  and  _30
REMARK   13  A    between atoms: _29  and  _32
REMARK   14  A    between atoms: _32  and  _33
REMARK   15  A    between atoms: _36  and  _38
REMARK   16  A    between atoms: _38  and  _39
REMARK   17  A    between atoms: _38  and  _41
REMARK   18  A    between atoms: _41  and  _42
REMARK   19  A    between atoms: _45  and  _47
REMARK   20  A    between atoms: _47  and  _48
REMARK   21  A    between atoms: _47  and  _50
REMARK   22  A    between atoms: _50  and  _51
REMARK   23  A    between atoms: _54  and  _56
REMARK   24  A    between atoms: _56  and  _57
REMARK   25  A    between atoms: _59  and  _61
REMARK   26  A    between atoms: _61  and  _62
REMARK   27  A    between atoms: _65  and  _67
REMARK   28  A    between atoms: _67  and  _68
REMARK   29  A    between atoms: _67  and  _70
REMARK   30  A    between atoms: _70  and  _71
REMARK   31  A    between atoms: _74  and  _76
REMARK   32  A    between atoms: _76  and  _77
REMARK   33  A    between atoms: _76  and  _79
REMARK   34  A    between atoms: _79  and  _80
REMARK   35  A    between atoms: _83  and  _85
REMARK   36  A    between atoms: _85  and  _86
REMARK   37  A    between atoms: _85  and  _88
REMARK   38  A    between atoms: _88  and  _89
REMARK   39  A    between atoms: _92  and  _94
REMARK   40  A    between atoms: _94  and  _95
REMARK   41  A    between atoms: _94  and  _97
REMARK   42  A    between atoms: _100  and  _102
REMARK   43  A    between atoms: _102  and  _103
REMARK   44  A    between atoms: _102  and  _105
REMARK   45  A    between atoms: _105  and  _106
REMARK   46  A    between atoms: _109  and  _111
REMARK   47  A    between atoms: _111  and  _112
REMARK   48  A    between atoms: _114  and  _116
REMARK   49  A    between atoms: _116  and  _117
REMARK   50  A    between atoms: _119  and  _121
REMARK   51  A    between atoms: _121  and  _122
REMARK   52  A    between atoms: _121  and  _124
REMARK   53  A    between atoms: _124  and  _125
REMARK   54  A    between atoms: _128  and  _130
REMARK   55  A    between atoms: _130  and  _131
REMARK   56  A    between atoms: _133  and  _135
REMARK   57  A    between atoms: _135  and  _136
REMARK   58  A    between atoms: _138  and  _140
REMARK   59  A    between atoms: _140  and  _141
REMARK   60  A    between atoms: _140  and  _143
REMARK   61  A    between atoms: _143  and  _144
REMARK   62  A    between atoms: _150  and  _152
REMARK   63  A    between atoms: _152  and  _153
REMARK   64  A    between atoms: _152  and  _155
REMARK   65  A    between atoms: _155  and  _156
REMARK   66  A    between atoms: _159  and  _161
REMARK   67  A    between atoms: _161  and  _162
REMARK   68  A    between atoms: _161  and  _164
REMARK   69  A    between atoms: _164  and  _165
REMARK   70  A    between atoms: _169  and  _170
REMARK   71  A    between atoms: _175  and  _177
REMARK   72  A    between atoms: _177  and  _178
REMARK   73  A    between atoms: _177  and  _180
REMARK   74  A    between atoms: _180  and  _181
REMARK   75  A    between atoms: _185  and  _186
REMARK   76  A    between atoms: _191  and  _193
REMARK   77  A    between atoms: _193  and  _194
REMARK   78  A    between atoms: _193  and  _196
REMARK   79  A    between atoms: _199  and  _201
REMARK   80  A    between atoms: _201  and  _202
REMARK   81  A    between atoms: _201  and  _204
REMARK   82  A    between atoms: _204  and  _205
REMARK   83  A    between atoms: _210  and  _212
REMARK   84  A    between atoms: _212  and  _213
REMARK   85  A    between atoms: _212  and  _215
REMARK   86  A    between atoms: _215  and  _216
REMARK   87  A    between atoms: _219  and  _221
REMARK   88  A    between atoms: _221  and  _222
REMARK   89  A    between atoms: _221  and  _224
REMARK   90  A    between atoms: _224  and  _225
REMARK   91  A    between atoms: _228  and  _230
REMARK   92  A    between atoms: _230  and  _231
REMARK   93  A    between atoms: _233  and  _235
REMARK   94  A    between atoms: _235  and  _236
REMARK   95  A    between atoms: _235  and  _238
REMARK   96  A    between atoms: _238  and  _239
REMARK   97  A    between atoms: _239  and  _240
REMARK   98  A    between atoms: _240  and  _241
REMARK   99  A    between atoms: _250  and  _252
REMARK  100  A    between atoms: _252  and  _253
REMARK  101  A    between atoms: _252  and  _255
REMARK  102  A    between atoms: _255  and  _256
REMARK  103  A    between atoms: _256  and  _257
REMARK  104  A    between atoms: _257  and  _258
REMARK  105  A    between atoms: _267  and  _269
REMARK  106  A    between atoms: _269  and  _270
REMARK  107  A    between atoms: _269  and  _272
REMARK  108  A    between atoms: _272  and  _273
REMARK  109  A    between atoms: _276  and  _278
REMARK  110  A    between atoms: _278  and  _279
REMARK  111  A    between atoms: _278  and  _281
REMARK  112  A    between atoms: _281  and  _282
REMARK  113  A    between atoms: _285  and  _287
REMARK  114  A    between atoms: _287  and  _288
REMARK  115  A    between atoms: _287  and  _290
REMARK  116  A    between atoms: _290  and  _291
REMARK  117  A    between atoms: _294  and  _296
REMARK  118  A    between atoms: _296  and  _297
REMARK  119  A    between atoms: _296  and  _299
REMARK  120  A    between atoms: _299  and  _300
REMARK  121  A    between atoms: _303  and  _305
REMARK  122  A    between atoms: _305  and  _306
REMARK  123  A    between atoms: _308  and  _310
REMARK  124  A    between atoms: _310  and  _311
REMARK  125  A    between atoms: _314  and  _316
REMARK  126  A    between atoms: _316  and  _317
REMARK  127  A    between atoms: _316  and  _319
REMARK  128  A    between atoms: _319  and  _320
REMARK  129  A    between atoms: _323  and  _325
REMARK  130  A    between atoms: _325  and  _326
REMARK  131  A    between atoms: _325  and  _328
REMARK  132  A    between atoms: _328  and  _329
REMARK  133  A    between atoms: _332  and  _334
REMARK  134  A    between atoms: _334  and  _335
REMARK  135  A    between atoms: _334  and  _337
REMARK  136  A    between atoms: _337  and  _338
REMARK  137  A    between atoms: _341  and  _343
REMARK  138  A    between atoms: _343  and  _344
REMARK  139  A    between atoms: _343  and  _346
REMARK  140  A    between atoms: _349  and  _351
REMARK  141  A    between atoms: _351  and  _352
REMARK  142  A    between atoms: _351  and  _354
REMARK  143  A    between atoms: _354  and  _355
REMARK  144  A    between atoms: _355  and  _356
REMARK  145  A    between atoms: _356  and  _357
REMARK  146  A    between atoms: _357  and  _358
REMARK  147  A    between atoms: _362  and  _364
REMARK  148  A    between atoms: _364  and  _365
REMARK  149  A    between atoms: _364  and  _367
REMARK  150  A    between atoms: _367  and  _368
REMARK  151  A    between atoms: _368  and  _369
REMARK  152  A    between atoms: _371  and  _373
REMARK  153  A    between atoms: _373  and  _374
REMARK  154  A    between atoms: _373  and  _376
REMARK  155  A    between atoms: _376  and  _377
REMARK  156  A    between atoms: _380  and  _382
REMARK  157  A    between atoms: _382  and  _383
REMARK  158  A    between atoms: _385  and  _387
REMARK  159  A    between atoms: _387  and  _388
REMARK  160  A    between atoms: _390  and  _392
REMARK  161  A    between atoms: _392  and  _393
REMARK  162  A    between atoms: _392  and  _395
REMARK  163  A    between atoms: _395  and  _396
REMARK  164  A    between atoms: _399  and  _401
REMARK  165  A    between atoms: _401  and  _402
REMARK  166  A    between atoms: _404  and  _406
REMARK  167  A    between atoms: _406  and  _407
REMARK  168  A    between atoms: _409  and  _411
REMARK  169  A    between atoms: _411  and  _412
REMARK  170  A    between atoms: _411  and  _414
REMARK  171  A    between atoms: _414  and  _415
REMARK  172  A    between atoms: _421  and  _423
REMARK  173  A    between atoms: _423  and  _424
REMARK  174  A    between atoms: _423  and  _426
REMARK  175  A    between atoms: _426  and  _427
REMARK  176  A    between atoms: _430  and  _432
REMARK  177  A    between atoms: _432  and  _433
REMARK  178  A    between atoms: _432  and  _435
REMARK  179  A    between atoms: _438  and  _440
REMARK  180  A    between atoms: _440  and  _441
REMARK  181  A    between atoms: _440  and  _443
REMARK  182  A    between atoms: _443  and  _444
REMARK  183  A    between atoms: _448  and  _449
REMARK  184  A    between atoms: _454  and  _456
REMARK  185  A    between atoms: _456  and  _457
REMARK  186  A    between atoms: _456  and  _459
REMARK  187  A    between atoms: _459  and  _460
REMARK  188  A    between atoms: _464  and  _465
REMARK  189  A    between atoms: _470  and  _472
REMARK  190  A    between atoms: _472  and  _473
REMARK  191  A    between atoms: _472  and  _475
REMARK  192  A    between atoms: _478  and  _480
REMARK  193  A    between atoms: _480  and  _481
REMARK  194  A    between atoms: _480  and  _483
REMARK  195  A    between atoms: _483  and  _484
REMARK  196  A    between atoms: _489  and  _491
REMARK  197  A    between atoms: _491  and  _492
REMARK  198  A    between atoms: _491  and  _494
REMARK  199  A    between atoms: _494  and  _495
REMARK  200  A    between atoms: _498  and  _500
REMARK  201  A    between atoms: _500  and  _501
REMARK  202  A    between atoms: _500  and  _503
REMARK  203  A    between atoms: _503  and  _504
REMARK  204  A    between atoms: _507  and  _509
REMARK  205  A    between atoms: _509  and  _510
REMARK  206  A    between atoms: _512  and  _514
REMARK  207  A    between atoms: _514  and  _515
REMARK  208  A    between atoms: _514  and  _517
REMARK  209  A    between atoms: _517  and  _518
REMARK  210  A    between atoms: _518  and  _519
REMARK  211  A    between atoms: _519  and  _520
REMARK  212  A    between atoms: _529  and  _531
REMARK  213  A    between atoms: _531  and  _532
REMARK  214  A    between atoms: _531  and  _534
REMARK  215  A    between atoms: _534  and  _535
REMARK                            x       y       z     vdW  Elec       q    Type
REMARK                         _______ _______ _______ _____ _____    ______ ____
ROOT
ATOM      1  O   HOH     1      19.879  32.068  11.678  0.00  0.00    +0.000 OA
ENDROOT
TORSDOF 0
REMARK  Name = ../refined-set-2016/2qi5/2qi5_pocket.pdb
REMARK  215 active torsions:
REMARK  status: ('A' for Active; 'I' for Inactive)
REMARK    1  A    between atoms: _1  and  _3
REMARK    2  A    between atoms: _3  and  _4
REMARK    3  A    between atoms: _3  and  _6
REMARK    4  A    between atoms: _6  and  _7
REMARK    5  A    between atoms: _7  and  _8
REMARK    6  A    between atoms: _8  and  _9
REMARK    7  A    between atoms: _18  and  _20
REMARK    8  A    between atoms: _20  and  _21
REMARK    9  A    between atoms: _20  and  _23
REMARK   10  A    between atoms: _23  and  _24
REMARK   11  A    between atoms: _27  and  _29
REMARK   12  A    between atoms: _29  and  _30
REMARK   13  A    between atoms: _29  and  _32
REMARK   14  A    between atoms: _32  and  _33
REMARK   15  A    between atoms: _36  and  _38
REMARK   16  A    between atoms: _38  and  _39
REMARK   17  A    between atoms: _38  and  _41
REMARK   18  A    between atoms: _41  and  _42
REMARK   19  A    between atoms: _45  and  _47
REMARK   20  A    between atoms: _47  and  _48
REMARK   21  A    between atoms: _47  and  _50
REMARK   22  A    between atoms: _50  and  _51
REMARK   23  A    between atoms: _54  and  _56
REMARK   24  A    between atoms: _56  and  _57
REMARK   25  A    between atoms: _59  and  _61
REMARK   26  A    between atoms: _61  and  _62
REMARK   27  A    between atoms: _65  and  _67
REMARK   28  A    between atoms: _67  and  _68
REMARK   29  A    between atoms: _67  and  _70
REMARK   30  A    between atoms: _70  and  _71
REMARK   31  A    between atoms: _74  and  _76
REMARK   32  A    between atoms: _76  and  _77
REMARK   33  A    between atoms: _76  and  _79
REMARK   34  A    between atoms: _79  and  _80
REMARK   35  A    between atoms: _83  and  _85
REMARK   36  A    between atoms: _85  and  _86
REMARK   37  A    between atoms: _85  and  _88
REMARK   38  A    between atoms: _88  and  _89
REMARK   39  A    between atoms: _92  and  _94
REMARK   40  A    between atoms: _94  and  _95
REMARK   41  A    between atoms: _94  and  _97
REMARK   42  A    between atoms: _100  and  _102
REMARK   43  A    between atoms: _102  and  _103
REMARK   44  A    between atoms: _102  and  _105
REMARK   45  A    between atoms: _105  and  _106
REMARK   46  A    between atoms: _109  and  _111
REMARK   47  A    between atoms: _111  and  _112
REMARK   48  A    between atoms: _114  and  _116
REMARK   49  A    between atoms: _116  and  _117
REMARK   50  A    between atoms: _119  and  _121
REMARK   51  A    between atoms: _121  and  _122
REMARK   52  A    between atoms: _121  and  _124
REMARK   53  A    between atoms: _124  and  _125
REMARK   54  A    between atoms: _128  and  _130
REMARK   55  A    between atoms: _130  and  _131
REMARK   56  A    between atoms: _133  and  _135
REMARK   57  A    between atoms: _135  and  _136
REMARK   58  A    between atoms: _138  and  _140
REMARK   59  A    between atoms: _140  and  _141
REMARK   60  A    between atoms: _140  and  _143
REMARK   61  A    between atoms: _143  and  _144
REMARK   62  A    between atoms: _150  and  _152
REMARK   63  A    between atoms: _152  and  _153
REMARK   64  A    between atoms: _152  and  _155
REMARK   65  A    between atoms: _155  and  _156
REMARK   66  A    between atoms: _159  and  _161
REMARK   67  A    between atoms: _161  and  _162
REMARK   68  A    between atoms: _161  and  _164
REMARK   69  A    between atoms: _164  and  _165
REMARK   70  A    between atoms: _169  and  _170
REMARK   71  A    between atoms: _175  and  _177
REMARK   72  A    between atoms: _177  and  _178
REMARK   73  A    between atoms: _177  and  _180
REMARK   74  A    between atoms: _180  and  _181
REMARK   75  A    between atoms: _185  and  _186
REMARK   76  A    between atoms: _191  and  _193
REMARK   77  A    between atoms: _193  and  _194
REMARK   78  A    between atoms: _193  and  _196
REMARK   79  A    between atoms: _199  and  _201
REMARK   80  A    between atoms: _201  and  _202
REMARK   81  A    between atoms: _201  and  _204
REMARK   82  A    between atoms: _204  and  _205
REMARK   83  A    between atoms: _210  and  _212
REMARK   84  A    between atoms: _212  and  _213
REMARK   85  A    between atoms: _212  and  _215
REMARK   86  A    between atoms: _215  and  _216
REMARK   87  A    between atoms: _219  and  _221
REMARK   88  A    between atoms: _221  and  _222
REMARK   89  A    between atoms: _221  and  _224
REMARK   90  A    between atoms: _224  and  _225
REMARK   91  A    between atoms: _228  and  _230
REMARK   92  A    between atoms: _230  and  _231
REMARK   93  A    between atoms: _233  and  _235
REMARK   94  A    between atoms: _235  and  _236
REMARK   95  A    between atoms: _235  and  _238
REMARK   96  A    between atoms: _238  and  _239
REMARK   97  A    between atoms: _239  and  _240
REMARK   98  A    between atoms: _240  and  _241
REMARK   99  A    between atoms: _250  and  _252
REMARK  100  A    between atoms: _252  and  _253
REMARK  101  A    between atoms: _252  and  _255
REMARK  102  A    between atoms: _255  and  _256
REMARK  103  A    between atoms: _256  and  _257
REMARK  104  A    between atoms: _257  and  _258
REMARK  105  A    between atoms: _267  and  _269
REMARK  106  A    between atoms: _269  and  _270
REMARK  107  A    between atoms: _269  and  _272
REMARK  108  A    between atoms: _272  and  _273
REMARK  109  A    between atoms: _276  and  _278
REMARK  110  A    between atoms: _278  and  _279
REMARK  111  A    between atoms: _278  and  _281
REMARK  112  A    between atoms: _281  and  _282
REMARK  113  A    between atoms: _285  and  _287
REMARK  114  A    between atoms: _287  and  _288
REMARK  115  A    between atoms: _287  and  _290
REMARK  116  A    between atoms: _290  and  _291
REMARK  117  A    between atoms: _294  and  _296
REMARK  118  A    between atoms: _296  and  _297
REMARK  119  A    between atoms: _296  and  _299
REMARK  120  A    between atoms: _299  and  _300
REMARK  121  A    between atoms: _303  and  _305
REMARK  122  A    between atoms: _305  and  _306
REMARK  123  A    between atoms: _308  and  _310
REMARK  124  A    between atoms: _310  and  _311
REMARK  125  A    between atoms: _314  and  _316
REMARK  126  A    between atoms: _316  and  _317
REMARK  127  A    between atoms: _316  and  _319
REMARK  128  A    between atoms: _319  and  _320
REMARK  129  A    between atoms: _323  and  _325
REMARK  130  A    between atoms: _325  and  _326
REMARK  131  A    between atoms: _325  and  _328
REMARK  132  A    between atoms: _328  and  _329
REMARK  133  A    between atoms: _332  and  _334
REMARK  134  A    between atoms: _334  and  _335
REMARK  135  A    between atoms: _334  and  _337
REMARK  136  A    between atoms: _337  and  _338
REMARK  137  A    between atoms: _341  and  _343
REMARK  138  A    between atoms: _343  and  _344
REMARK  139  A    between atoms: _343  and  _346
REMARK  140  A    between atoms: _349  and  _351
REMARK  141  A    between atoms: _351  and  _352
REMARK  142  A    between atoms: _351  and  _354
REMARK  143  A    between atoms: _354  and  _355
REMARK  144  A    between atoms: _355  and  _356
REMARK  145  A    between atoms: _356  and  _357
REMARK  146  A    between atoms: _357  and  _358
REMARK  147  A    between atoms: _362  and  _364
REMARK  148  A    between atoms: _364  and  _365
REMARK  149  A    between atoms: _364  and  _367
REMARK  150  A    between atoms: _367  and  _368
REMARK  151  A    between atoms: _368  and  _369
REMARK  152  A    between atoms: _371  and  _373
REMARK  153  A    between atoms: _373  and  _374
REMARK  154  A    between atoms: _373  and  _376
REMARK  155  A    between atoms: _376  and  _377
REMARK  156  A    between atoms: _380  and  _382
REMARK  157  A    between atoms: _382  and  _383
REMARK  158  A    between atoms: _385  and  _387
REMARK  159  A    between atoms: _387  and  _388
REMARK  160  A    between atoms: _390  and  _392
REMARK  161  A    between atoms: _392  and  _393
REMARK  162  A    between atoms: _392  and  _395
REMARK  163  A    between atoms: _395  and  _396
REMARK  164  A    between atoms: _399  and  _401
REMARK  165  A    between atoms: _401  and  _402
REMARK  166  A    between atoms: _404  and  _406
REMARK  167  A    between atoms: _406  and  _407
REMARK  168  A    between atoms: _409  and  _411
REMARK  169  A    between atoms: _411  and  _412
REMARK  170  A    between atoms: _411  and  _414
REMARK  171  A    between atoms: _414  and  _415
REMARK  172  A    between atoms: _421  and  _423
REMARK  173  A    between atoms: _423  and  _424
REMARK  174  A    between atoms: _423  and  _426
REMARK  175  A    between atoms: _426  and  _427
REMARK  176  A    between atoms: _430  and  _432
REMARK  177  A    between atoms: _432  and  _433
REMARK  178  A    between atoms: _432  and  _435
REMARK  179  A    between atoms: _438  and  _440
REMARK  180  A    between atoms: _440  and  _441
REMARK  181  A    between atoms: _440  and  _443
REMARK  182  A    between atoms: _443  and  _444
REMARK  183  A    between atoms: _448  and  _449
REMARK  184  A    between atoms: _454  and  _456
REMARK  185  A    between atoms: _456  and  _457
REMARK  186  A    between atoms: _456  and  _459
REMARK  187  A    between atoms: _459  and  _460
REMARK  188  A    between atoms: _464  and  _465
REMARK  189  A    between atoms: _470  and  _472
REMARK  190  A    between atoms: _472  and  _473
REMARK  191  A    between atoms: _472  and  _475
REMARK  192  A    between atoms: _478  and  _480
REMARK  193  A    between atoms: _480  and  _481
REMARK  194  A    between atoms: _480  and  _483
REMARK  195  A    between atoms: _483  and  _484
REMARK  196  A    between atoms: _489  and  _491
REMARK  197  A    between atoms: _491  and  _492
REMARK  198  A    between atoms: _491  and  _494
REMARK  199  A    between atoms: _494  and  _495
REMARK  200  A    between atoms: _498  and  _500
REMARK  201  A    between atoms: _500  and  _501
REMARK  202  A    between atoms: _500  and  _503
REMARK  203  A    between atoms: _503  and  _504
REMARK  204  A    between atoms: _507  and  _509
REMARK  205  A    between atoms: _509  and  _510
REMARK  206  A    between atoms: _512  and  _514
REMARK  207  A    between atoms: _514  and  _515
REMARK  208  A    between atoms: _514  and  _517
REMARK  209  A    between atoms: _517  and  _518
REMARK  210  A    between atoms: _518  and  _519
REMARK  211  A    between atoms: _519  and  _520
REMARK  212  A    between atoms: _529  and  _531
REMARK  213  A    between atoms: _531  and  _532
REMARK  214  A    between atoms: _531  and  _534
REMARK  215  A    between atoms: _534  and  _535
REMARK                            x       y       z     vdW  Elec       q    Type
REMARK                         _______ _______ _______ _____ _____    ______ ____
ROOT
ATOM      1  O   HOH     1      14.522  35.391  25.795  0.00  0.00    +0.000 OA
ENDROOT
TORSDOF 0
REMARK  Name = ../refined-set-2016/2qi5/2qi5_pocket.pdb
REMARK  215 active torsions:
REMARK  status: ('A' for Active; 'I' for Inactive)
REMARK    1  A    between atoms: _1  and  _3
REMARK    2  A    between atoms: _3  and  _4
REMARK    3  A    between atoms: _3  and  _6
REMARK    4  A    between atoms: _6  and  _7
REMARK    5  A    between atoms: _7  and  _8
REMARK    6  A    between atoms: _8  and  _9
REMARK    7  A    between atoms: _18  and  _20
REMARK    8  A    between atoms: _20  and  _21
REMARK    9  A    between atoms: _20  and  _23
REMARK   10  A    between atoms: _23  and  _24
REMARK   11  A    between atoms: _27  and  _29
REMARK   12  A    between atoms: _29  and  _30
REMARK   13  A    between atoms: _29  and  _32
REMARK   14  A    between atoms: _32  and  _33
REMARK   15  A    between atoms: _36  and  _38
REMARK   16  A    between atoms: _38  and  _39
REMARK   17  A    between atoms: _38  and  _41
REMARK   18  A    between atoms: _41  and  _42
REMARK   19  A    between atoms: _45  and  _47
REMARK   20  A    between atoms: _47  and  _48
REMARK   21  A    between atoms: _47  and  _50
REMARK   22  A    between atoms: _50  and  _51
REMARK   23  A    between atoms: _54  and  _56
REMARK   24  A    between atoms: _56  and  _57
REMARK   25  A    between atoms: _59  and  _61
REMARK   26  A    between atoms: _61  and  _62
REMARK   27  A    between atoms: _65  and  _67
REMARK   28  A    between atoms: _67  and  _68
REMARK   29  A    between atoms: _67  and  _70
REMARK   30  A    between atoms: _70  and  _71
REMARK   31  A    between atoms: _74  and  _76
REMARK   32  A    between atoms: _76  and  _77
REMARK   33  A    between atoms: _76  and  _79
REMARK   34  A    between atoms: _79  and  _80
REMARK   35  A    between atoms: _83  and  _85
REMARK   36  A    between atoms: _85  and  _86
REMARK   37  A    between atoms: _85  and  _88
REMARK   38  A    between atoms: _88  and  _89
REMARK   39  A    between atoms: _92  and  _94
REMARK   40  A    between atoms: _94  and  _95
REMARK   41  A    between atoms: _94  and  _97
REMARK   42  A    between atoms: _100  and  _102
REMARK   43  A    between atoms: _102  and  _103
REMARK   44  A    between atoms: _102  and  _105
REMARK   45  A    between atoms: _105  and  _106
REMARK   46  A    between atoms: _109  and  _111
REMARK   47  A    between atoms: _111  and  _112
REMARK   48  A    between atoms: _114  and  _116
REMARK   49  A    between atoms: _116  and  _117
REMARK   50  A    between atoms: _119  and  _121
REMARK   51  A    between atoms: _121  and  _122
REMARK   52  A    between atoms: _121  and  _124
REMARK   53  A    between atoms: _124  and  _125
REMARK   54  A    between atoms: _128  and  _130
REMARK   55  A    between atoms: _130  and  _131
REMARK   56  A    between atoms: _133  and  _135
REMARK   57  A    between atoms: _135  and  _136
REMARK   58  A    between atoms: _138  and  _140
REMARK   59  A    between atoms: _140  and  _141
REMARK   60  A    between atoms: _140  and  _143
REMARK   61  A    between atoms: _143  and  _144
REMARK   62  A    between atoms: _150  and  _152
REMARK   63  A    between atoms: _152  and  _153
REMARK   64  A    between atoms: _152  and  _155
REMARK   65  A    between atoms: _155  and  _156
REMARK   66  A    between atoms: _159  and  _161
REMARK   67  A    between atoms: _161  and  _162
REMARK   68  A    between atoms: _161  and  _164
REMARK   69  A    between atoms: _164  and  _165
REMARK   70  A    between atoms: _169  and  _170
REMARK   71  A    between atoms: _175  and  _177
REMARK   72  A    between atoms: _177  and  _178
REMARK   73  A    between atoms: _177  and  _180
REMARK   74  A    between atoms: _180  and  _181
REMARK   75  A    between atoms: _185  and  _186
REMARK   76  A    between atoms: _191  and  _193
REMARK   77  A    between atoms: _193  and  _194
REMARK   78  A    between atoms: _193  and  _196
REMARK   79  A    between atoms: _199  and  _201
REMARK   80  A    between atoms: _201  and  _202
REMARK   81  A    between atoms: _201  and  _204
REMARK   82  A    between atoms: _204  and  _205
REMARK   83  A    between atoms: _210  and  _212
REMARK   84  A    between atoms: _212  and  _213
REMARK   85  A    between atoms: _212  and  _215
REMARK   86  A    between atoms: _215  and  _216
REMARK   87  A    between atoms: _219  and  _221
REMARK   88  A    between atoms: _221  and  _222
REMARK   89  A    between atoms: _221  and  _224
REMARK   90  A    between atoms: _224  and  _225
REMARK   91  A    between atoms: _228  and  _230
REMARK   92  A    between atoms: _230  and  _231
REMARK   93  A    between atoms: _233  and  _235
REMARK   94  A    between atoms: _235  and  _236
REMARK   95  A    between atoms: _235  and  _238
REMARK   96  A    between atoms: _238  and  _239
REMARK   97  A    between atoms: _239  and  _240
REMARK   98  A    between atoms: _240  and  _241
REMARK   99  A    between atoms: _250  and  _252
REMARK  100  A    between atoms: _252  and  _253
REMARK  101  A    between atoms: _252  and  _255
REMARK  102  A    between atoms: _255  and  _256
REMARK  103  A    between atoms: _256  and  _257
REMARK  104  A    between atoms: _257  and  _258
REMARK  105  A    between atoms: _267  and  _269
REMARK  106  A    between atoms: _269  and  _270
REMARK  107  A    between atoms: _269  and  _272
REMARK  108  A    between atoms: _272  and  _273
REMARK  109  A    between atoms: _276  and  _278
REMARK  110  A    between atoms: _278  and  _279
REMARK  111  A    between atoms: _278  and  _281
REMARK  112  A    between atoms: _281  and  _282
REMARK  113  A    between atoms: _285  and  _287
REMARK  114  A    between atoms: _287  and  _288
REMARK  115  A    between atoms: _287  and  _290
REMARK  116  A    between atoms: _290  and  _291
REMARK  117  A    between atoms: _294  and  _296
REMARK  118  A    between atoms: _296  and  _297
REMARK  119  A    between atoms: _296  and  _299
REMARK  120  A    between atoms: _299  and  _300
REMARK  121  A    between atoms: _303  and  _305
REMARK  122  A    between atoms: _305  and  _306
REMARK  123  A    between atoms: _308  and  _310
REMARK  124  A    between atoms: _310  and  _311
REMARK  125  A    between atoms: _314  and  _316
REMARK  126  A    between atoms: _316  and  _317
REMARK  127  A    between atoms: _316  and  _319
REMARK  128  A    between atoms: _319  and  _320
REMARK  129  A    between atoms: _323  and  _325
REMARK  130  A    between atoms: _325  and  _326
REMARK  131  A    between atoms: _325  and  _328
REMARK  132  A    between atoms: _328  and  _329
REMARK  133  A    between atoms: _332  and  _334
REMARK  134  A    between atoms: _334  and  _335
REMARK  135  A    between atoms: _334  and  _337
REMARK  136  A    between atoms: _337  and  _338
REMARK  137  A    between atoms: _341  and  _343
REMARK  138  A    between atoms: _343  and  _344
REMARK  139  A    between atoms: _343  and  _346
REMARK  140  A    between atoms: _349  and  _351
REMARK  141  A    between atoms: _351  and  _352
REMARK  142  A    between atoms: _351  and  _354
REMARK  143  A    between atoms: _354  and  _355
REMARK  144  A    between atoms: _355  and  _356
REMARK  145  A    between atoms: _356  and  _357
REMARK  146  A    between atoms: _357  and  _358
REMARK  147  A    between atoms: _362  and  _364
REMARK  148  A    between atoms: _364  and  _365
REMARK  149  A    between atoms: _364  and  _367
REMARK  150  A    between atoms: _367  and  _368
REMARK  151  A    between atoms: _368  and  _369
REMARK  152  A    between atoms: _371  and  _373
REMARK  153  A    between atoms: _373  and  _374
REMARK  154  A    between atoms: _373  and  _376
REMARK  155  A    between atoms: _376  and  _377
REMARK  156  A    between atoms: _380  and  _382
REMARK  157  A    between atoms: _382  and  _383
REMARK  158  A    between atoms: _385  and  _387
REMARK  159  A    between atoms: _387  and  _388
REMARK  160  A    between atoms: _390  and  _392
REMARK  161  A    between atoms: _392  and  _393
REMARK  162  A    between atoms: _392  and  _395
REMARK  163  A    between atoms: _395  and  _396
REMARK  164  A    between atoms: _399  and  _401
REMARK  165  A    between atoms: _401  and  _402
REMARK  166  A    between atoms: _404  and  _406
REMARK  167  A    between atoms: _406  and  _407
REMARK  168  A    between atoms: _409  and  _411
REMARK  169  A    between atoms: _411  and  _412
REMARK  170  A    between atoms: _411  and  _414
REMARK  171  A    between atoms: _414  and  _415
REMARK  172  A    between atoms: _421  and  _423
REMARK  173  A    between atoms: _423  and  _424
REMARK  174  A    between atoms: _423  and  _426
REMARK  175  A    between atoms: _426  and  _427
REMARK  176  A    between atoms: _430  and  _432
REMARK  177  A    between atoms: _432  and  _433
REMARK  178  A    between atoms: _432  and  _435
REMARK  179  A    between atoms: _438  and  _440
REMARK  180  A    between atoms: _440  and  _441
REMARK  181  A    between atoms: _440  and  _443
REMARK  182  A    between atoms: _443  and  _444
REMARK  183  A    between atoms: _448  and  _449
REMARK  184  A    between atoms: _454  and  _456
REMARK  185  A    between atoms: _456  and  _457
REMARK  186  A    between atoms: _456  and  _459
REMARK  187  A    between atoms: _459  and  _460
REMARK  188  A    between atoms: _464  and  _465
REMARK  189  A    between atoms: _470  and  _472
REMARK  190  A    between atoms: _472  and  _473
REMARK  191  A    between atoms: _472  and  _475
REMARK  192  A    between atoms: _478  and  _480
REMARK  193  A    between atoms: _480  and  _481
REMARK  194  A    between atoms: _480  and  _483
REMARK  195  A    between atoms: _483  and  _484
REMARK  196  A    between atoms: _489  and  _491
REMARK  197  A    between atoms: _491  and  _492
REMARK  198  A    between atoms: _491  and  _494
REMARK  199  A    between atoms: _494  and  _495
REMARK  200  A    between atoms: _498  and  _500
REMARK  201  A    between atoms: _500  and  _501
REMARK  202  A    between atoms: _500  and  _503
REMARK  203  A    between atoms: _503  and  _504
REMARK  204  A    between atoms: _507  and  _509
REMARK  205  A    between atoms: _509  and  _510
REMARK  206  A    between atoms: _512  and  _514
REMARK  207  A    between atoms: _514  and  _515
REMARK  208  A    between atoms: _514  and  _517
REMARK  209  A    between atoms: _517  and  _518
REMARK  210  A    between atoms: _518  and  _519
REMARK  211  A    between atoms: _519  and  _520
REMARK  212  A    between atoms: _529  and  _531
REMARK  213  A    between atoms: _531  and  _532
REMARK  214  A    between atoms: _531  and  _534
REMARK  215  A    between atoms: _534  and  _535
REMARK                            x       y       z     vdW  Elec       q    Type
REMARK                         _______ _______ _______ _____ _____    ______ ____
ROOT
ATOM      1  O   HOH     1      17.453  40.163  16.046  0.00  0.00    +0.000 OA
ENDROOT
TORSDOF 0
REMARK  Name = ../refined-set-2016/2qi5/2qi5_pocket.pdb
REMARK  215 active torsions:
REMARK  status: ('A' for Active; 'I' for Inactive)
REMARK    1  A    between atoms: _1  and  _3
REMARK    2  A    between atoms: _3  and  _4
REMARK    3  A    between atoms: _3  and  _6
REMARK    4  A    between atoms: _6  and  _7
REMARK    5  A    between atoms: _7  and  _8
REMARK    6  A    between atoms: _8  and  _9
REMARK    7  A    between atoms: _18  and  _20
REMARK    8  A    between atoms: _20  and  _21
REMARK    9  A    between atoms: _20  and  _23
REMARK   10  A    between atoms: _23  and  _24
REMARK   11  A    between atoms: _27  and  _29
REMARK   12  A    between atoms: _29  and  _30
REMARK   13  A    between atoms: _29  and  _32
REMARK   14  A    between atoms: _32  and  _33
REMARK   15  A    between atoms: _36  and  _38
REMARK   16  A    between atoms: _38  and  _39
REMARK   17  A    between atoms: _38  and  _41
REMARK   18  A    between atoms: _41  and  _42
REMARK   19  A    between atoms: _45  and  _47
REMARK   20  A    between atoms: _47  and  _48
REMARK   21  A    between atoms: _47  and  _50
REMARK   22  A    between atoms: _50  and  _51
REMARK   23  A    between atoms: _54  and  _56
REMARK   24  A    between atoms: _56  and  _57
REMARK   25  A    between atoms: _59  and  _61
REMARK   26  A    between atoms: _61  and  _62
REMARK   27  A    between atoms: _65  and  _67
REMARK   28  A    between atoms: _67  and  _68
REMARK   29  A    between atoms: _67  and  _70
REMARK   30  A    between atoms: _70  and  _71
REMARK   31  A    between atoms: _74  and  _76
REMARK   32  A    between atoms: _76  and  _77
REMARK   33  A    between atoms: _76  and  _79
REMARK   34  A    between atoms: _79  and  _80
REMARK   35  A    between atoms: _83  and  _85
REMARK   36  A    between atoms: _85  and  _86
REMARK   37  A    between atoms: _85  and  _88
REMARK   38  A    between atoms: _88  and  _89
REMARK   39  A    between atoms: _92  and  _94
REMARK   40  A    between atoms: _94  and  _95
REMARK   41  A    between atoms: _94  and  _97
REMARK   42  A    between atoms: _100  and  _102
REMARK   43  A    between atoms: _102  and  _103
REMARK   44  A    between atoms: _102  and  _105
REMARK   45  A    between atoms: _105  and  _106
REMARK   46  A    between atoms: _109  and  _111
REMARK   47  A    between atoms: _111  and  _112
REMARK   48  A    between atoms: _114  and  _116
REMARK   49  A    between atoms: _116  and  _117
REMARK   50  A    between atoms: _119  and  _121
REMARK   51  A    between atoms: _121  and  _122
REMARK   52  A    between atoms: _121  and  _124
REMARK   53  A    between atoms: _124  and  _125
REMARK   54  A    between atoms: _128  and  _130
REMARK   55  A    between atoms: _130  and  _131
REMARK   56  A    between atoms: _133  and  _135
REMARK   57  A    between atoms: _135  and  _136
REMARK   58  A    between atoms: _138  and  _140
REMARK   59  A    between atoms: _140  and  _141
REMARK   60  A    between atoms: _140  and  _143
REMARK   61  A    between atoms: _143  and  _144
REMARK   62  A    between atoms: _150  and  _152
REMARK   63  A    between atoms: _152  and  _153
REMARK   64  A    between atoms: _152  and  _155
REMARK   65  A    between atoms: _155  and  _156
REMARK   66  A    between atoms: _159  and  _161
REMARK   67  A    between atoms: _161  and  _162
REMARK   68  A    between atoms: _161  and  _164
REMARK   69  A    between atoms: _164  and  _165
REMARK   70  A    between atoms: _169  and  _170
REMARK   71  A    between atoms: _175  and  _177
REMARK   72  A    between atoms: _177  and  _178
REMARK   73  A    between atoms: _177  and  _180
REMARK   74  A    between atoms: _180  and  _181
REMARK   75  A    between atoms: _185  and  _186
REMARK   76  A    between atoms: _191  and  _193
REMARK   77  A    between atoms: _193  and  _194
REMARK   78  A    between atoms: _193  and  _196
REMARK   79  A    between atoms: _199  and  _201
REMARK   80  A    between atoms: _201  and  _202
REMARK   81  A    between atoms: _201  and  _204
REMARK   82  A    between atoms: _204  and  _205
REMARK   83  A    between atoms: _210  and  _212
REMARK   84  A    between atoms: _212  and  _213
REMARK   85  A    between atoms: _212  and  _215
REMARK   86  A    between atoms: _215  and  _216
REMARK   87  A    between atoms: _219  and  _221
REMARK   88  A    between atoms: _221  and  _222
REMARK   89  A    between atoms: _221  and  _224
REMARK   90  A    between atoms: _224  and  _225
REMARK   91  A    between atoms: _228  and  _230
REMARK   92  A    between atoms: _230  and  _231
REMARK   93  A    between atoms: _233  and  _235
REMARK   94  A    between atoms: _235  and  _236
REMARK   95  A    between atoms: _235  and  _238
REMARK   96  A    between atoms: _238  and  _239
REMARK   97  A    between atoms: _239  and  _240
REMARK   98  A    between atoms: _240  and  _241
REMARK   99  A    between atoms: _250  and  _252
REMARK  100  A    between atoms: _252  and  _253
REMARK  101  A    between atoms: _252  and  _255
REMARK  102  A    between atoms: _255  and  _256
REMARK  103  A    between atoms: _256  and  _257
REMARK  104  A    between atoms: _257  and  _258
REMARK  105  A    between atoms: _267  and  _269
REMARK  106  A    between atoms: _269  and  _270
REMARK  107  A    between atoms: _269  and  _272
REMARK  108  A    between atoms: _272  and  _273
REMARK  109  A    between atoms: _276  and  _278
REMARK  110  A    between atoms: _278  and  _279
REMARK  111  A    between atoms: _278  and  _281
REMARK  112  A    between atoms: _281  and  _282
REMARK  113  A    between atoms: _285  and  _287
REMARK  114  A    between atoms: _287  and  _288
REMARK  115  A    between atoms: _287  and  _290
REMARK  116  A    between atoms: _290  and  _291
REMARK  117  A    between atoms: _294  and  _296
REMARK  118  A    between atoms: _296  and  _297
REMARK  119  A    between atoms: _296  and  _299
REMARK  120  A    between atoms: _299  and  _300
REMARK  121  A    between atoms: _303  and  _305
REMARK  122  A    between atoms: _305  and  _306
REMARK  123  A    between atoms: _308  and  _310
REMARK  124  A    between atoms: _310  and  _311
REMARK  125  A    between atoms: _314  and  _316
REMARK  126  A    between atoms: _316  and  _317
REMARK  127  A    between atoms: _316  and  _319
REMARK  128  A    between atoms: _319  and  _320
REMARK  129  A    between atoms: _323  and  _325
REMARK  130  A    between atoms: _325  and  _326
REMARK  131  A    between atoms: _325  and  _328
REMARK  132  A    between atoms: _328  and  _329
REMARK  133  A    between atoms: _332  and  _334
REMARK  134  A    between atoms: _334  and  _335
REMARK  135  A    between atoms: _334  and  _337
REMARK  136  A    between atoms: _337  and  _338
REMARK  137  A    between atoms: _341  and  _343
REMARK  138  A    between atoms: _343  and  _344
REMARK  139  A    between atoms: _343  and  _346
REMARK  140  A    between atoms: _349  and  _351
REMARK  141  A    between atoms: _351  and  _352
REMARK  142  A    between atoms: _351  and  _354
REMARK  143  A    between atoms: _354  and  _355
REMARK  144  A    between atoms: _355  and  _356
REMARK  145  A    between atoms: _356  and  _357
REMARK  146  A    between atoms: _357  and  _358
REMARK  147  A    between atoms: _362  and  _364
REMARK  148  A    between atoms: _364  and  _365
REMARK  149  A    between atoms: _364  and  _367
REMARK  150  A    between atoms: _367  and  _368
REMARK  151  A    between atoms: _368  and  _369
REMARK  152  A    between atoms: _371  and  _373
REMARK  153  A    between atoms: _373  and  _374
REMARK  154  A    between atoms: _373  and  _376
REMARK  155  A    between atoms: _376  and  _377
REMARK  156  A    between atoms: _380  and  _382
REMARK  157  A    between atoms: _382  and  _383
REMARK  158  A    between atoms: _385  and  _387
REMARK  159  A    between atoms: _387  and  _388
REMARK  160  A    between atoms: _390  and  _392
REMARK  161  A    between atoms: _392  and  _393
REMARK  162  A    between atoms: _392  and  _395
REMARK  163  A    between atoms: _395  and  _396
REMARK  164  A    between atoms: _399  and  _401
REMARK  165  A    between atoms: _401  and  _402
REMARK  166  A    between atoms: _404  and  _406
REMARK  167  A    between atoms: _406  and  _407
REMARK  168  A    between atoms: _409  and  _411
REMARK  169  A    between atoms: _411  and  _412
REMARK  170  A    between atoms: _411  and  _414
REMARK  171  A    between atoms: _414  and  _415
REMARK  172  A    between atoms: _421  and  _423
REMARK  173  A    between atoms: _423  and  _424
REMARK  174  A    between atoms: _423  and  _426
REMARK  175  A    between atoms: _426  and  _427
REMARK  176  A    between atoms: _430  and  _432
REMARK  177  A    between atoms: _432  and  _433
REMARK  178  A    between atoms: _432  and  _435
REMARK  179  A    between atoms: _438  and  _440
REMARK  180  A    between atoms: _440  and  _441
REMARK  181  A    between atoms: _440  and  _443
REMARK  182  A    between atoms: _443  and  _444
REMARK  183  A    between atoms: _448  and  _449
REMARK  184  A    between atoms: _454  and  _456
REMARK  185  A    between atoms: _456  and  _457
REMARK  186  A    between atoms: _456  and  _459
REMARK  187  A    between atoms: _459  and  _460
REMARK  188  A    between atoms: _464  and  _465
REMARK  189  A    between atoms: _470  and  _472
REMARK  190  A    between atoms: _472  and  _473
REMARK  191  A    between atoms: _472  and  _475
REMARK  192  A    between atoms: _478  and  _480
REMARK  193  A    between atoms: _480  and  _481
REMARK  194  A    between atoms: _480  and  _483
REMARK  195  A    between atoms: _483  and  _484
REMARK  196  A    between atoms: _489  and  _491
REMARK  197  A    between atoms: _491  and  _492
REMARK  198  A    between atoms: _491  and  _494
REMARK  199  A    between atoms: _494  and  _495
REMARK  200  A    between atoms: _498  and  _500
REMARK  201  A    between atoms: _500  and  _501
REMARK  202  A    between atoms: _500  and  _503
REMARK  203  A    between atoms: _503  and  _504
REMARK  204  A    between atoms: _507  and  _509
REMARK  205  A    between atoms: _509  and  _510
REMARK  206  A    between atoms: _512  and  _514
REMARK  207  A    between atoms: _514  and  _515
REMARK  208  A    between atoms: _514  and  _517
REMARK  209  A    between atoms: _517  and  _518
REMARK  210  A    between atoms: _518  and  _519
REMARK  211  A    between atoms: _519  and  _520
REMARK  212  A    between atoms: _529  and  _531
REMARK  213  A    between atoms: _531  and  _532
REMARK  214  A    between atoms: _531  and  _534
REMARK  215  A    between atoms: _534  and  _535
REMARK                            x       y       z     vdW  Elec       q    Type
REMARK                         _______ _______ _______ _____ _____    ______ ____
ROOT
ATOM      1  O   HOH     1      10.001  36.720  23.094  0.00  0.00    +0.000 OA
ENDROOT
TORSDOF 0
REMARK  Name = ../refined-set-2016/2qi5/2qi5_pocket.pdb
REMARK  215 active torsions:
REMARK  status: ('A' for Active; 'I' for Inactive)
REMARK    1  A    between atoms: _1  and  _3
REMARK    2  A    between atoms: _3  and  _4
REMARK    3  A    between atoms: _3  and  _6
REMARK    4  A    between atoms: _6  and  _7
REMARK    5  A    between atoms: _7  and  _8
REMARK    6  A    between atoms: _8  and  _9
REMARK    7  A    between atoms: _18  and  _20
REMARK    8  A    between atoms: _20  and  _21
REMARK    9  A    between atoms: _20  and  _23
REMARK   10  A    between atoms: _23  and  _24
REMARK   11  A    between atoms: _27  and  _29
REMARK   12  A    between atoms: _29  and  _30
REMARK   13  A    between atoms: _29  and  _32
REMARK   14  A    between atoms: _32  and  _33
REMARK   15  A    between atoms: _36  and  _38
REMARK   16  A    between atoms: _38  and  _39
REMARK   17  A    between atoms: _38  and  _41
REMARK   18  A    between atoms: _41  and  _42
REMARK   19  A    between atoms: _45  and  _47
REMARK   20  A    between atoms: _47  and  _48
REMARK   21  A    between atoms: _47  and  _50
REMARK   22  A    between atoms: _50  and  _51
REMARK   23  A    between atoms: _54  and  _56
REMARK   24  A    between atoms: _56  and  _57
REMARK   25  A    between atoms: _59  and  _61
REMARK   26  A    between atoms: _61  and  _62
REMARK   27  A    between atoms: _65  and  _67
REMARK   28  A    between atoms: _67  and  _68
REMARK   29  A    between atoms: _67  and  _70
REMARK   30  A    between atoms: _70  and  _71
REMARK   31  A    between atoms: _74  and  _76
REMARK   32  A    between atoms: _76  and  _77
REMARK   33  A    between atoms: _76  and  _79
REMARK   34  A    between atoms: _79  and  _80
REMARK   35  A    between atoms: _83  and  _85
REMARK   36  A    between atoms: _85  and  _86
REMARK   37  A    between atoms: _85  and  _88
REMARK   38  A    between atoms: _88  and  _89
REMARK   39  A    between atoms: _92  and  _94
REMARK   40  A    between atoms: _94  and  _95
REMARK   41  A    between atoms: _94  and  _97
REMARK   42  A    between atoms: _100  and  _102
REMARK   43  A    between atoms: _102  and  _103
REMARK   44  A    between atoms: _102  and  _105
REMARK   45  A    between atoms: _105  and  _106
REMARK   46  A    between atoms: _109  and  _111
REMARK   47  A    between atoms: _111  and  _112
REMARK   48  A    between atoms: _114  and  _116
REMARK   49  A    between atoms: _116  and  _117
REMARK   50  A    between atoms: _119  and  _121
REMARK   51  A    between atoms: _121  and  _122
REMARK   52  A    between atoms: _121  and  _124
REMARK   53  A    between atoms: _124  and  _125
REMARK   54  A    between atoms: _128  and  _130
REMARK   55  A    between atoms: _130  and  _131
REMARK   56  A    between atoms: _133  and  _135
REMARK   57  A    between atoms: _135  and  _136
REMARK   58  A    between atoms: _138  and  _140
REMARK   59  A    between atoms: _140  and  _141
REMARK   60  A    between atoms: _140  and  _143
REMARK   61  A    between atoms: _143  and  _144
REMARK   62  A    between atoms: _150  and  _152
REMARK   63  A    between atoms: _152  and  _153
REMARK   64  A    between atoms: _152  and  _155
REMARK   65  A    between atoms: _155  and  _156
REMARK   66  A    between atoms: _159  and  _161
REMARK   67  A    between atoms: _161  and  _162
REMARK   68  A    between atoms: _161  and  _164
REMARK   69  A    between atoms: _164  and  _165
REMARK   70  A    between atoms: _169  and  _170
REMARK   71  A    between atoms: _175  and  _177
REMARK   72  A    between atoms: _177  and  _178
REMARK   73  A    between atoms: _177  and  _180
REMARK   74  A    between atoms: _180  and  _181
REMARK   75  A    between atoms: _185  and  _186
REMARK   76  A    between atoms: _191  and  _193
REMARK   77  A    between atoms: _193  and  _194
REMARK   78  A    between atoms: _193  and  _196
REMARK   79  A    between atoms: _199  and  _201
REMARK   80  A    between atoms: _201  and  _202
REMARK   81  A    between atoms: _201  and  _204
REMARK   82  A    between atoms: _204  and  _205
REMARK   83  A    between atoms: _210  and  _212
REMARK   84  A    between atoms: _212  and  _213
REMARK   85  A    between atoms: _212  and  _215
REMARK   86  A    between atoms: _215  and  _216
REMARK   87  A    between atoms: _219  and  _221
REMARK   88  A    between atoms: _221  and  _222
REMARK   89  A    between atoms: _221  and  _224
REMARK   90  A    between atoms: _224  and  _225
REMARK   91  A    between atoms: _228  and  _230
REMARK   92  A    between atoms: _230  and  _231
REMARK   93  A    between atoms: _233  and  _235
REMARK   94  A    between atoms: _235  and  _236
REMARK   95  A    between atoms: _235  and  _238
REMARK   96  A    between atoms: _238  and  _239
REMARK   97  A    between atoms: _239  and  _240
REMARK   98  A    between atoms: _240  and  _241
REMARK   99  A    between atoms: _250  and  _252
REMARK  100  A    between atoms: _252  and  _253
REMARK  101  A    between atoms: _252  and  _255
REMARK  102  A    between atoms: _255  and  _256
REMARK  103  A    between atoms: _256  and  _257
REMARK  104  A    between atoms: _257  and  _258
REMARK  105  A    between atoms: _267  and  _269
REMARK  106  A    between atoms: _269  and  _270
REMARK  107  A    between atoms: _269  and  _272
REMARK  108  A    between atoms: _272  and  _273
REMARK  109  A    between atoms: _276  and  _278
REMARK  110  A    between atoms: _278  and  _279
REMARK  111  A    between atoms: _278  and  _281
REMARK  112  A    between atoms: _281  and  _282
REMARK  113  A    between atoms: _285  and  _287
REMARK  114  A    between atoms: _287  and  _288
REMARK  115  A    between atoms: _287  and  _290
REMARK  116  A    between atoms: _290  and  _291
REMARK  117  A    between atoms: _294  and  _296
REMARK  118  A    between atoms: _296  and  _297
REMARK  119  A    between atoms: _296  and  _299
REMARK  120  A    between atoms: _299  and  _300
REMARK  121  A    between atoms: _303  and  _305
REMARK  122  A    between atoms: _305  and  _306
REMARK  123  A    between atoms: _308  and  _310
REMARK  124  A    between atoms: _310  and  _311
REMARK  125  A    between atoms: _314  and  _316
REMARK  126  A    between atoms: _316  and  _317
REMARK  127  A    between atoms: _316  and  _319
REMARK  128  A    between atoms: _319  and  _320
REMARK  129  A    between atoms: _323  and  _325
REMARK  130  A    between atoms: _325  and  _326
REMARK  131  A    between atoms: _325  and  _328
REMARK  132  A    between atoms: _328  and  _329
REMARK  133  A    between atoms: _332  and  _334
REMARK  134  A    between atoms: _334  and  _335
REMARK  135  A    between atoms: _334  and  _337
REMARK  136  A    between atoms: _337  and  _338
REMARK  137  A    between atoms: _341  and  _343
REMARK  138  A    between atoms: _343  and  _344
REMARK  139  A    between atoms: _343  and  _346
REMARK  140  A    between atoms: _349  and  _351
REMARK  141  A    between atoms: _351  and  _352
REMARK  142  A    between atoms: _351  and  _354
REMARK  143  A    between atoms: _354  and  _355
REMARK  144  A    between atoms: _355  and  _356
REMARK  145  A    between atoms: _356  and  _357
REMARK  146  A    between atoms: _357  and  _358
REMARK  147  A    between atoms: _362  and  _364
REMARK  148  A    between atoms: _364  and  _365
REMARK  149  A    between atoms: _364  and  _367
REMARK  150  A    between atoms: _367  and  _368
REMARK  151  A    between atoms: _368  and  _369
REMARK  152  A    between atoms: _371  and  _373
REMARK  153  A    between atoms: _373  and  _374
REMARK  154  A    between atoms: _373  and  _376
REMARK  155  A    between atoms: _376  and  _377
REMARK  156  A    between atoms: _380  and  _382
REMARK  157  A    between atoms: _382  and  _383
REMARK  158  A    between atoms: _385  and  _387
REMARK  159  A    between atoms: _387  and  _388
REMARK  160  A    between atoms: _390  and  _392
REMARK  161  A    between atoms: _392  and  _393
REMARK  162  A    between atoms: _392  and  _395
REMARK  163  A    between atoms: _395  and  _396
REMARK  164  A    between atoms: _399  and  _401
REMARK  165  A    between atoms: _401  and  _402
REMARK  166  A    between atoms: _404  and  _406
REMARK  167  A    between atoms: _406  and  _407
REMARK  168  A    between atoms: _409  and  _411
REMARK  169  A    between atoms: _411  and  _412
REMARK  170  A    between atoms: _411  and  _414
REMARK  171  A    between atoms: _414  and  _415
REMARK  172  A    between atoms: _421  and  _423
REMARK  173  A    between atoms: _423  and  _424
REMARK  174  A    between atoms: _423  and  _426
REMARK  175  A    between atoms: _426  and  _427
REMARK  176  A    between atoms: _430  and  _432
REMARK  177  A    between atoms: _432  and  _433
REMARK  178  A    between atoms: _432  and  _435
REMARK  179  A    between atoms: _438  and  _440
REMARK  180  A    between atoms: _440  and  _441
REMARK  181  A    between atoms: _440  and  _443
REMARK  182  A    between atoms: _443  and  _444
REMARK  183  A    between atoms: _448  and  _449
REMARK  184  A    between atoms: _454  and  _456
REMARK  185  A    between atoms: _456  and  _457
REMARK  186  A    between atoms: _456  and  _459
REMARK  187  A    between atoms: _459  and  _460
REMARK  188  A    between atoms: _464  and  _465
REMARK  189  A    between atoms: _470  and  _472
REMARK  190  A    between atoms: _472  and  _473
REMARK  191  A    between atoms: _472  and  _475
REMARK  192  A    between atoms: _478  and  _480
REMARK  193  A    between atoms: _480  and  _481
REMARK  194  A    between atoms: _480  and  _483
REMARK  195  A    between atoms: _483  and  _484
REMARK  196  A    between atoms: _489  and  _491
REMARK  197  A    between atoms: _491  and  _492
REMARK  198  A    between atoms: _491  and  _494
REMARK  199  A    between atoms: _494  and  _495
REMARK  200  A    between atoms: _498  and  _500
REMARK  201  A    between atoms: _500  and  _501
REMARK  202  A    between atoms: _500  and  _503
REMARK  203  A    between atoms: _503  and  _504
REMARK  204  A    between atoms: _507  and  _509
REMARK  205  A    between atoms: _509  and  _510
REMARK  206  A    between atoms: _512  and  _514
REMARK  207  A    between atoms: _514  and  _515
REMARK  208  A    between atoms: _514  and  _517
REMARK  209  A    between atoms: _517  and  _518
REMARK  210  A    between atoms: _518  and  _519
REMARK  211  A    between atoms: _519  and  _520
REMARK  212  A    between atoms: _529  and  _531
REMARK  213  A    between atoms: _531  and  _532
REMARK  214  A    between atoms: _531  and  _534
REMARK  215  A    between atoms: _534  and  _535
REMARK                            x       y       z     vdW  Elec       q    Type
REMARK                         _______ _______ _______ _____ _____    ______ ____
ROOT
ATOM      1  O   HOH     1      25.570  37.403   8.398  0.00  0.00    +0.000 OA
ENDROOT
TORSDOF 0
REMARK  Name = ../refined-set-2016/2qi5/2qi5_pocket.pdb
REMARK  215 active torsions:
REMARK  status: ('A' for Active; 'I' for Inactive)
REMARK    1  A    between atoms: _1  and  _3
REMARK    2  A    between atoms: _3  and  _4
REMARK    3  A    between atoms: _3  and  _6
REMARK    4  A    between atoms: _6  and  _7
REMARK    5  A    between atoms: _7  and  _8
REMARK    6  A    between atoms: _8  and  _9
REMARK    7  A    between atoms: _18  and  _20
REMARK    8  A    between atoms: _20  and  _21
REMARK    9  A    between atoms: _20  and  _23
REMARK   10  A    between atoms: _23  and  _24
REMARK   11  A    between atoms: _27  and  _29
REMARK   12  A    between atoms: _29  and  _30
REMARK   13  A    between atoms: _29  and  _32
REMARK   14  A    between atoms: _32  and  _33
REMARK   15  A    between atoms: _36  and  _38
REMARK   16  A    between atoms: _38  and  _39
REMARK   17  A    between atoms: _38  and  _41
REMARK   18  A    between atoms: _41  and  _42
REMARK   19  A    between atoms: _45  and  _47
REMARK   20  A    between atoms: _47  and  _48
REMARK   21  A    between atoms: _47  and  _50
REMARK   22  A    between atoms: _50  and  _51
REMARK   23  A    between atoms: _54  and  _56
REMARK   24  A    between atoms: _56  and  _57
REMARK   25  A    between atoms: _59  and  _61
REMARK   26  A    between atoms: _61  and  _62
REMARK   27  A    between atoms: _65  and  _67
REMARK   28  A    between atoms: _67  and  _68
REMARK   29  A    between atoms: _67  and  _70
REMARK   30  A    between atoms: _70  and  _71
REMARK   31  A    between atoms: _74  and  _76
REMARK   32  A    between atoms: _76  and  _77
REMARK   33  A    between atoms: _76  and  _79
REMARK   34  A    between atoms: _79  and  _80
REMARK   35  A    between atoms: _83  and  _85
REMARK   36  A    between atoms: _85  and  _86
REMARK   37  A    between atoms: _85  and  _88
REMARK   38  A    between atoms: _88  and  _89
REMARK   39  A    between atoms: _92  and  _94
REMARK   40  A    between atoms: _94  and  _95
REMARK   41  A    between atoms: _94  and  _97
REMARK   42  A    between atoms: _100  and  _102
REMARK   43  A    between atoms: _102  and  _103
REMARK   44  A    between atoms: _102  and  _105
REMARK   45  A    between atoms: _105  and  _106
REMARK   46  A    between atoms: _109  and  _111
REMARK   47  A    between atoms: _111  and  _112
REMARK   48  A    between atoms: _114  and  _116
REMARK   49  A    between atoms: _116  and  _117
REMARK   50  A    between atoms: _119  and  _121
REMARK   51  A    between atoms: _121  and  _122
REMARK   52  A    between atoms: _121  and  _124
REMARK   53  A    between atoms: _124  and  _125
REMARK   54  A    between atoms: _128  and  _130
REMARK   55  A    between atoms: _130  and  _131
REMARK   56  A    between atoms: _133  and  _135
REMARK   57  A    between atoms: _135  and  _136
REMARK   58  A    between atoms: _138  and  _140
REMARK   59  A    between atoms: _140  and  _141
REMARK   60  A    between atoms: _140  and  _143
REMARK   61  A    between atoms: _143  and  _144
REMARK   62  A    between atoms: _150  and  _152
REMARK   63  A    between atoms: _152  and  _153
REMARK   64  A    between atoms: _152  and  _155
REMARK   65  A    between atoms: _155  and  _156
REMARK   66  A    between atoms: _159  and  _161
REMARK   67  A    between atoms: _161  and  _162
REMARK   68  A    between atoms: _161  and  _164
REMARK   69  A    between atoms: _164  and  _165
REMARK   70  A    between atoms: _169  and  _170
REMARK   71  A    between atoms: _175  and  _177
REMARK   72  A    between atoms: _177  and  _178
REMARK   73  A    between atoms: _177  and  _180
REMARK   74  A    between atoms: _180  and  _181
REMARK   75  A    between atoms: _185  and  _186
REMARK   76  A    between atoms: _191  and  _193
REMARK   77  A    between atoms: _193  and  _194
REMARK   78  A    between atoms: _193  and  _196
REMARK   79  A    between atoms: _199  and  _201
REMARK   80  A    between atoms: _201  and  _202
REMARK   81  A    between atoms: _201  and  _204
REMARK   82  A    between atoms: _204  and  _205
REMARK   83  A    between atoms: _210  and  _212
REMARK   84  A    between atoms: _212  and  _213
REMARK   85  A    between atoms: _212  and  _215
REMARK   86  A    between atoms: _215  and  _216
REMARK   87  A    between atoms: _219  and  _221
REMARK   88  A    between atoms: _221  and  _222
REMARK   89  A    between atoms: _221  and  _224
REMARK   90  A    between atoms: _224  and  _225
REMARK   91  A    between atoms: _228  and  _230
REMARK   92  A    between atoms: _230  and  _231
REMARK   93  A    between atoms: _233  and  _235
REMARK   94  A    between atoms: _235  and  _236
REMARK   95  A    between atoms: _235  and  _238
REMARK   96  A    between atoms: _238  and  _239
REMARK   97  A    between atoms: _239  and  _240
REMARK   98  A    between atoms: _240  and  _241
REMARK   99  A    between atoms: _250  and  _252
REMARK  100  A    between atoms: _252  and  _253
REMARK  101  A    between atoms: _252  and  _255
REMARK  102  A    between atoms: _255  and  _256
REMARK  103  A    between atoms: _256  and  _257
REMARK  104  A    between atoms: _257  and  _258
REMARK  105  A    between atoms: _267  and  _269
REMARK  106  A    between atoms: _269  and  _270
REMARK  107  A    between atoms: _269  and  _272
REMARK  108  A    between atoms: _272  and  _273
REMARK  109  A    between atoms: _276  and  _278
REMARK  110  A    between atoms: _278  and  _279
REMARK  111  A    between atoms: _278  and  _281
REMARK  112  A    between atoms: _281  and  _282
REMARK  113  A    between atoms: _285  and  _287
REMARK  114  A    between atoms: _287  and  _288
REMARK  115  A    between atoms: _287  and  _290
REMARK  116  A    between atoms: _290  and  _291
REMARK  117  A    between atoms: _294  and  _296
REMARK  118  A    between atoms: _296  and  _297
REMARK  119  A    between atoms: _296  and  _299
REMARK  120  A    between atoms: _299  and  _300
REMARK  121  A    between atoms: _303  and  _305
REMARK  122  A    between atoms: _305  and  _306
REMARK  123  A    between atoms: _308  and  _310
REMARK  124  A    between atoms: _310  and  _311
REMARK  125  A    between atoms: _314  and  _316
REMARK  126  A    between atoms: _316  and  _317
REMARK  127  A    between atoms: _316  and  _319
REMARK  128  A    between atoms: _319  and  _320
REMARK  129  A    between atoms: _323  and  _325
REMARK  130  A    between atoms: _325  and  _326
REMARK  131  A    between atoms: _325  and  _328
REMARK  132  A    between atoms: _328  and  _329
REMARK  133  A    between atoms: _332  and  _334
REMARK  134  A    between atoms: _334  and  _335
REMARK  135  A    between atoms: _334  and  _337
REMARK  136  A    between atoms: _337  and  _338
REMARK  137  A    between atoms: _341  and  _343
REMARK  138  A    between atoms: _343  and  _344
REMARK  139  A    between atoms: _343  and  _346
REMARK  140  A    between atoms: _349  and  _351
REMARK  141  A    between atoms: _351  and  _352
REMARK  142  A    between atoms: _351  and  _354
REMARK  143  A    between atoms: _354  and  _355
REMARK  144  A    between atoms: _355  and  _356
REMARK  145  A    between atoms: _356  and  _357
REMARK  146  A    between atoms: _357  and  _358
REMARK  147  A    between atoms: _362  and  _364
REMARK  148  A    between atoms: _364  and  _365
REMARK  149  A    between atoms: _364  and  _367
REMARK  150  A    between atoms: _367  and  _368
REMARK  151  A    between atoms: _368  and  _369
REMARK  152  A    between atoms: _371  and  _373
REMARK  153  A    between atoms: _373  and  _374
REMARK  154  A    between atoms: _373  and  _376
REMARK  155  A    between atoms: _376  and  _377
REMARK  156  A    between atoms: _380  and  _382
REMARK  157  A    between atoms: _382  and  _383
REMARK  158  A    between atoms: _385  and  _387
REMARK  159  A    between atoms: _387  and  _388
REMARK  160  A    between atoms: _390  and  _392
REMARK  161  A    between atoms: _392  and  _393
REMARK  162  A    between atoms: _392  and  _395
REMARK  163  A    between atoms: _395  and  _396
REMARK  164  A    between atoms: _399  and  _401
REMARK  165  A    between atoms: _401  and  _402
REMARK  166  A    between atoms: _404  and  _406
REMARK  167  A    between atoms: _406  and  _407
REMARK  168  A    between atoms: _409  and  _411
REMARK  169  A    between atoms: _411  and  _412
REMARK  170  A    between atoms: _411  and  _414
REMARK  171  A    between atoms: _414  and  _415
REMARK  172  A    between atoms: _421  and  _423
REMARK  173  A    between atoms: _423  and  _424
REMARK  174  A    between atoms: _423  and  _426
REMARK  175  A    between atoms: _426  and  _427
REMARK  176  A    between atoms: _430  and  _432
REMARK  177  A    between atoms: _432  and  _433
REMARK  178  A    between atoms: _432  and  _435
REMARK  179  A    between atoms: _438  and  _440
REMARK  180  A    between atoms: _440  and  _441
REMARK  181  A    between atoms: _440  and  _443
REMARK  182  A    between atoms: _443  and  _444
REMARK  183  A    between atoms: _448  and  _449
REMARK  184  A    between atoms: _454  and  _456
REMARK  185  A    between atoms: _456  and  _457
REMARK  186  A    between atoms: _456  and  _459
REMARK  187  A    between atoms: _459  and  _460
REMARK  188  A    between atoms: _464  and  _465
REMARK  189  A    between atoms: _470  and  _472
REMARK  190  A    between atoms: _472  and  _473
REMARK  191  A    between atoms: _472  and  _475
REMARK  192  A    between atoms: _478  and  _480
REMARK  193  A    between atoms: _480  and  _481
REMARK  194  A    between atoms: _480  and  _483
REMARK  195  A    between atoms: _483  and  _484
REMARK  196  A    between atoms: _489  and  _491
REMARK  197  A    between atoms: _491  and  _492
REMARK  198  A    between atoms: _491  and  _494
REMARK  199  A    between atoms: _494  and  _495
REMARK  200  A    between atoms: _498  and  _500
REMARK  201  A    between atoms: _500  and  _501
REMARK  202  A    between atoms: _500  and  _503
REMARK  203  A    between atoms: _503  and  _504
REMARK  204  A    between atoms: _507  and  _509
REMARK  205  A    between atoms: _509  and  _510
REMARK  206  A    between atoms: _512  and  _514
REMARK  207  A    between atoms: _514  and  _515
REMARK  208  A    between atoms: _514  and  _517
REMARK  209  A    between atoms: _517  and  _518
REMARK  210  A    between atoms: _518  and  _519
REMARK  211  A    between atoms: _519  and  _520
REMARK  212  A    between atoms: _529  and  _531
REMARK  213  A    between atoms: _531  and  _532
REMARK  214  A    between atoms: _531  and  _534
REMARK  215  A    between atoms: _534  and  _535
REMARK                            x       y       z     vdW  Elec       q    Type
REMARK                         _______ _______ _______ _____ _____    ______ ____
ROOT
ATOM      1  O   HOH     1      12.281  20.802  10.978  0.00  0.00    +0.000 OA
ENDROOT
TORSDOF 0
REMARK  Name = ../refined-set-2016/2qi5/2qi5_pocket.pdb
REMARK  215 active torsions:
REMARK  status: ('A' for Active; 'I' for Inactive)
REMARK    1  A    between atoms: _1  and  _3
REMARK    2  A    between atoms: _3  and  _4
REMARK    3  A    between atoms: _3  and  _6
REMARK    4  A    between atoms: _6  and  _7
REMARK    5  A    between atoms: _7  and  _8
REMARK    6  A    between atoms: _8  and  _9
REMARK    7  A    between atoms: _18  and  _20
REMARK    8  A    between atoms: _20  and  _21
REMARK    9  A    between atoms: _20  and  _23
REMARK   10  A    between atoms: _23  and  _24
REMARK   11  A    between atoms: _27  and  _29
REMARK   12  A    between atoms: _29  and  _30
REMARK   13  A    between atoms: _29  and  _32
REMARK   14  A    between atoms: _32  and  _33
REMARK   15  A    between atoms: _36  and  _38
REMARK   16  A    between atoms: _38  and  _39
REMARK   17  A    between atoms: _38  and  _41
REMARK   18  A    between atoms: _41  and  _42
REMARK   19  A    between atoms: _45  and  _47
REMARK   20  A    between atoms: _47  and  _48
REMARK   21  A    between atoms: _47  and  _50
REMARK   22  A    between atoms: _50  and  _51
REMARK   23  A    between atoms: _54  and  _56
REMARK   24  A    between atoms: _56  and  _57
REMARK   25  A    between atoms: _59  and  _61
REMARK   26  A    between atoms: _61  and  _62
REMARK   27  A    between atoms: _65  and  _67
REMARK   28  A    between atoms: _67  and  _68
REMARK   29  A    between atoms: _67  and  _70
REMARK   30  A    between atoms: _70  and  _71
REMARK   31  A    between atoms: _74  and  _76
REMARK   32  A    between atoms: _76  and  _77
REMARK   33  A    between atoms: _76  and  _79
REMARK   34  A    between atoms: _79  and  _80
REMARK   35  A    between atoms: _83  and  _85
REMARK   36  A    between atoms: _85  and  _86
REMARK   37  A    between atoms: _85  and  _88
REMARK   38  A    between atoms: _88  and  _89
REMARK   39  A    between atoms: _92  and  _94
REMARK   40  A    between atoms: _94  and  _95
REMARK   41  A    between atoms: _94  and  _97
REMARK   42  A    between atoms: _100  and  _102
REMARK   43  A    between atoms: _102  and  _103
REMARK   44  A    between atoms: _102  and  _105
REMARK   45  A    between atoms: _105  and  _106
REMARK   46  A    between atoms: _109  and  _111
REMARK   47  A    between atoms: _111  and  _112
REMARK   48  A    between atoms: _114  and  _116
REMARK   49  A    between atoms: _116  and  _117
REMARK   50  A    between atoms: _119  and  _121
REMARK   51  A    between atoms: _121  and  _122
REMARK   52  A    between atoms: _121  and  _124
REMARK   53  A    between atoms: _124  and  _125
REMARK   54  A    between atoms: _128  and  _130
REMARK   55  A    between atoms: _130  and  _131
REMARK   56  A    between atoms: _133  and  _135
REMARK   57  A    between atoms: _135  and  _136
REMARK   58  A    between atoms: _138  and  _140
REMARK   59  A    between atoms: _140  and  _141
REMARK   60  A    between atoms: _140  and  _143
REMARK   61  A    between atoms: _143  and  _144
REMARK   62  A    between atoms: _150  and  _152
REMARK   63  A    between atoms: _152  and  _153
REMARK   64  A    between atoms: _152  and  _155
REMARK   65  A    between atoms: _155  and  _156
REMARK   66  A    between atoms: _159  and  _161
REMARK   67  A    between atoms: _161  and  _162
REMARK   68  A    between atoms: _161  and  _164
REMARK   69  A    between atoms: _164  and  _165
REMARK   70  A    between atoms: _169  and  _170
REMARK   71  A    between atoms: _175  and  _177
REMARK   72  A    between atoms: _177  and  _178
REMARK   73  A    between atoms: _177  and  _180
REMARK   74  A    between atoms: _180  and  _181
REMARK   75  A    between atoms: _185  and  _186
REMARK   76  A    between atoms: _191  and  _193
REMARK   77  A    between atoms: _193  and  _194
REMARK   78  A    between atoms: _193  and  _196
REMARK   79  A    between atoms: _199  and  _201
REMARK   80  A    between atoms: _201  and  _202
REMARK   81  A    between atoms: _201  and  _204
REMARK   82  A    between atoms: _204  and  _205
REMARK   83  A    between atoms: _210  and  _212
REMARK   84  A    between atoms: _212  and  _213
REMARK   85  A    between atoms: _212  and  _215
REMARK   86  A    between atoms: _215  and  _216
REMARK   87  A    between atoms: _219  and  _221
REMARK   88  A    between atoms: _221  and  _222
REMARK   89  A    between atoms: _221  and  _224
REMARK   90  A    between atoms: _224  and  _225
REMARK   91  A    between atoms: _228  and  _230
REMARK   92  A    between atoms: _230  and  _231
REMARK   93  A    between atoms: _233  and  _235
REMARK   94  A    between atoms: _235  and  _236
REMARK   95  A    between atoms: _235  and  _238
REMARK   96  A    between atoms: _238  and  _239
REMARK   97  A    between atoms: _239  and  _240
REMARK   98  A    between atoms: _240  and  _241
REMARK   99  A    between atoms: _250  and  _252
REMARK  100  A    between atoms: _252  and  _253
REMARK  101  A    between atoms: _252  and  _255
REMARK  102  A    between atoms: _255  and  _256
REMARK  103  A    between atoms: _256  and  _257
REMARK  104  A    between atoms: _257  and  _258
REMARK  105  A    between atoms: _267  and  _269
REMARK  106  A    between atoms: _269  and  _270
REMARK  107  A    between atoms: _269  and  _272
REMARK  108  A    between atoms: _272  and  _273
REMARK  109  A    between atoms: _276  and  _278
REMARK  110  A    between atoms: _278  and  _279
REMARK  111  A    between atoms: _278  and  _281
REMARK  112  A    between atoms: _281  and  _282
REMARK  113  A    between atoms: _285  and  _287
REMARK  114  A    between atoms: _287  and  _288
REMARK  115  A    between atoms: _287  and  _290
REMARK  116  A    between atoms: _290  and  _291
REMARK  117  A    between atoms: _294  and  _296
REMARK  118  A    between atoms: _296  and  _297
REMARK  119  A    between atoms: _296  and  _299
REMARK  120  A    between atoms: _299  and  _300
REMARK  121  A    between atoms: _303  and  _305
REMARK  122  A    between atoms: _305  and  _306
REMARK  123  A    between atoms: _308  and  _310
REMARK  124  A    between atoms: _310  and  _311
REMARK  125  A    between atoms: _314  and  _316
REMARK  126  A    between atoms: _316  and  _317
REMARK  127  A    between atoms: _316  and  _319
REMARK  128  A    between atoms: _319  and  _320
REMARK  129  A    between atoms: _323  and  _325
REMARK  130  A    between atoms: _325  and  _326
REMARK  131  A    between atoms: _325  and  _328
REMARK  132  A    between atoms: _328  and  _329
REMARK  133  A    between atoms: _332  and  _334
REMARK  134  A    between atoms: _334  and  _335
REMARK  135  A    between atoms: _334  and  _337
REMARK  136  A    between atoms: _337  and  _338
REMARK  137  A    between atoms: _341  and  _343
REMARK  138  A    between atoms: _343  and  _344
REMARK  139  A    between atoms: _343  and  _346
REMARK  140  A    between atoms: _349  and  _351
REMARK  141  A    between atoms: _351  and  _352
REMARK  142  A    between atoms: _351  and  _354
REMARK  143  A    between atoms: _354  and  _355
REMARK  144  A    between atoms: _355  and  _356
REMARK  145  A    between atoms: _356  and  _357
REMARK  146  A    between atoms: _357  and  _358
REMARK  147  A    between atoms: _362  and  _364
REMARK  148  A    between atoms: _364  and  _365
REMARK  149  A    between atoms: _364  and  _367
REMARK  150  A    between atoms: _367  and  _368
REMARK  151  A    between atoms: _368  and  _369
REMARK  152  A    between atoms: _371  and  _373
REMARK  153  A    between atoms: _373  and  _374
REMARK  154  A    between atoms: _373  and  _376
REMARK  155  A    between atoms: _376  and  _377
REMARK  156  A    between atoms: _380  and  _382
REMARK  157  A    between atoms: _382  and  _383
REMARK  158  A    between atoms: _385  and  _387
REMARK  159  A    between atoms: _387  and  _388
REMARK  160  A    between atoms: _390  and  _392
REMARK  161  A    between atoms: _392  and  _393
REMARK  162  A    between atoms: _392  and  _395
REMARK  163  A    between atoms: _395  and  _396
REMARK  164  A    between atoms: _399  and  _401
REMARK  165  A    between atoms: _401  and  _402
REMARK  166  A    between atoms: _404  and  _406
REMARK  167  A    between atoms: _406  and  _407
REMARK  168  A    between atoms: _409  and  _411
REMARK  169  A    between atoms: _411  and  _412
REMARK  170  A    between atoms: _411  and  _414
REMARK  171  A    between atoms: _414  and  _415
REMARK  172  A    between atoms: _421  and  _423
REMARK  173  A    between atoms: _423  and  _424
REMARK  174  A    between atoms: _423  and  _426
REMARK  175  A    between atoms: _426  and  _427
REMARK  176  A    between atoms: _430  and  _432
REMARK  177  A    between atoms: _432  and  _433
REMARK  178  A    between atoms: _432  and  _435
REMARK  179  A    between atoms: _438  and  _440
REMARK  180  A    between atoms: _440  and  _441
REMARK  181  A    between atoms: _440  and  _443
REMARK  182  A    between atoms: _443  and  _444
REMARK  183  A    between atoms: _448  and  _449
REMARK  184  A    between atoms: _454  and  _456
REMARK  185  A    between atoms: _456  and  _457
REMARK  186  A    between atoms: _456  and  _459
REMARK  187  A    between atoms: _459  and  _460
REMARK  188  A    between atoms: _464  and  _465
REMARK  189  A    between atoms: _470  and  _472
REMARK  190  A    between atoms: _472  and  _473
REMARK  191  A    between atoms: _472  and  _475
REMARK  192  A    between atoms: _478  and  _480
REMARK  193  A    between atoms: _480  and  _481
REMARK  194  A    between atoms: _480  and  _483
REMARK  195  A    between atoms: _483  and  _484
REMARK  196  A    between atoms: _489  and  _491
REMARK  197  A    between atoms: _491  and  _492
REMARK  198  A    between atoms: _491  and  _494
REMARK  199  A    between atoms: _494  and  _495
REMARK  200  A    between atoms: _498  and  _500
REMARK  201  A    between atoms: _500  and  _501
REMARK  202  A    between atoms: _500  and  _503
REMARK  203  A    between atoms: _503  and  _504
REMARK  204  A    between atoms: _507  and  _509
REMARK  205  A    between atoms: _509  and  _510
REMARK  206  A    between atoms: _512  and  _514
REMARK  207  A    between atoms: _514  and  _515
REMARK  208  A    between atoms: _514  and  _517
REMARK  209  A    between atoms: _517  and  _518
REMARK  210  A    between atoms: _518  and  _519
REMARK  211  A    between atoms: _519  and  _520
REMARK  212  A    between atoms: _529  and  _531
REMARK  213  A    between atoms: _531  and  _532
REMARK  214  A    between atoms: _531  and  _534
REMARK  215  A    between atoms: _534  and  _535
REMARK                            x       y       z     vdW  Elec       q    Type
REMARK                         _______ _______ _______ _____ _____    ______ ____
ROOT
ATOM      1  O   HOH     1      16.714  39.372  20.446  0.00  0.00    +0.000 OA
ENDROOT
TORSDOF 0
REMARK  Name = ../refined-set-2016/2qi5/2qi5_pocket.pdb
REMARK  215 active torsions:
REMARK  status: ('A' for Active; 'I' for Inactive)
REMARK    1  A    between atoms: _1  and  _3
REMARK    2  A    between atoms: _3  and  _4
REMARK    3  A    between atoms: _3  and  _6
REMARK    4  A    between atoms: _6  and  _7
REMARK    5  A    between atoms: _7  and  _8
REMARK    6  A    between atoms: _8  and  _9
REMARK    7  A    between atoms: _18  and  _20
REMARK    8  A    between atoms: _20  and  _21
REMARK    9  A    between atoms: _20  and  _23
REMARK   10  A    between atoms: _23  and  _24
REMARK   11  A    between atoms: _27  and  _29
REMARK   12  A    between atoms: _29  and  _30
REMARK   13  A    between atoms: _29  and  _32
REMARK   14  A    between atoms: _32  and  _33
REMARK   15  A    between atoms: _36  and  _38
REMARK   16  A    between atoms: _38  and  _39
REMARK   17  A    between atoms: _38  and  _41
REMARK   18  A    between atoms: _41  and  _42
REMARK   19  A    between atoms: _45  and  _47
REMARK   20  A    between atoms: _47  and  _48
REMARK   21  A    between atoms: _47  and  _50
REMARK   22  A    between atoms: _50  and  _51
REMARK   23  A    between atoms: _54  and  _56
REMARK   24  A    between atoms: _56  and  _57
REMARK   25  A    between atoms: _59  and  _61
REMARK   26  A    between atoms: _61  and  _62
REMARK   27  A    between atoms: _65  and  _67
REMARK   28  A    between atoms: _67  and  _68
REMARK   29  A    between atoms: _67  and  _70
REMARK   30  A    between atoms: _70  and  _71
REMARK   31  A    between atoms: _74  and  _76
REMARK   32  A    between atoms: _76  and  _77
REMARK   33  A    between atoms: _76  and  _79
REMARK   34  A    between atoms: _79  and  _80
REMARK   35  A    between atoms: _83  and  _85
REMARK   36  A    between atoms: _85  and  _86
REMARK   37  A    between atoms: _85  and  _88
REMARK   38  A    between atoms: _88  and  _89
REMARK   39  A    between atoms: _92  and  _94
REMARK   40  A    between atoms: _94  and  _95
REMARK   41  A    between atoms: _94  and  _97
REMARK   42  A    between atoms: _100  and  _102
REMARK   43  A    between atoms: _102  and  _103
REMARK   44  A    between atoms: _102  and  _105
REMARK   45  A    between atoms: _105  and  _106
REMARK   46  A    between atoms: _109  and  _111
REMARK   47  A    between atoms: _111  and  _112
REMARK   48  A    between atoms: _114  and  _116
REMARK   49  A    between atoms: _116  and  _117
REMARK   50  A    between atoms: _119  and  _121
REMARK   51  A    between atoms: _121  and  _122
REMARK   52  A    between atoms: _121  and  _124
REMARK   53  A    between atoms: _124  and  _125
REMARK   54  A    between atoms: _128  and  _130
REMARK   55  A    between atoms: _130  and  _131
REMARK   56  A    between atoms: _133  and  _135
REMARK   57  A    between atoms: _135  and  _136
REMARK   58  A    between atoms: _138  and  _140
REMARK   59  A    between atoms: _140  and  _141
REMARK   60  A    between atoms: _140  and  _143
REMARK   61  A    between atoms: _143  and  _144
REMARK   62  A    between atoms: _150  and  _152
REMARK   63  A    between atoms: _152  and  _153
REMARK   64  A    between atoms: _152  and  _155
REMARK   65  A    between atoms: _155  and  _156
REMARK   66  A    between atoms: _159  and  _161
REMARK   67  A    between atoms: _161  and  _162
REMARK   68  A    between atoms: _161  and  _164
REMARK   69  A    between atoms: _164  and  _165
REMARK   70  A    between atoms: _169  and  _170
REMARK   71  A    between atoms: _175  and  _177
REMARK   72  A    between atoms: _177  and  _178
REMARK   73  A    between atoms: _177  and  _180
REMARK   74  A    between atoms: _180  and  _181
REMARK   75  A    between atoms: _185  and  _186
REMARK   76  A    between atoms: _191  and  _193
REMARK   77  A    between atoms: _193  and  _194
REMARK   78  A    between atoms: _193  and  _196
REMARK   79  A    between atoms: _199  and  _201
REMARK   80  A    between atoms: _201  and  _202
REMARK   81  A    between atoms: _201  and  _204
REMARK   82  A    between atoms: _204  and  _205
REMARK   83  A    between atoms: _210  and  _212
REMARK   84  A    between atoms: _212  and  _213
REMARK   85  A    between atoms: _212  and  _215
REMARK   86  A    between atoms: _215  and  _216
REMARK   87  A    between atoms: _219  and  _221
REMARK   88  A    between atoms: _221  and  _222
REMARK   89  A    between atoms: _221  and  _224
REMARK   90  A    between atoms: _224  and  _225
REMARK   91  A    between atoms: _228  and  _230
REMARK   92  A    between atoms: _230  and  _231
REMARK   93  A    between atoms: _233  and  _235
REMARK   94  A    between atoms: _235  and  _236
REMARK   95  A    between atoms: _235  and  _238
REMARK   96  A    between atoms: _238  and  _239
REMARK   97  A    between atoms: _239  and  _240
REMARK   98  A    between atoms: _240  and  _241
REMARK   99  A    between atoms: _250  and  _252
REMARK  100  A    between atoms: _252  and  _253
REMARK  101  A    between atoms: _252  and  _255
REMARK  102  A    between atoms: _255  and  _256
REMARK  103  A    between atoms: _256  and  _257
REMARK  104  A    between atoms: _257  and  _258
REMARK  105  A    between atoms: _267  and  _269
REMARK  106  A    between atoms: _269  and  _270
REMARK  107  A    between atoms: _269  and  _272
REMARK  108  A    between atoms: _272  and  _273
REMARK  109  A    between atoms: _276  and  _278
REMARK  110  A    between atoms: _278  and  _279
REMARK  111  A    between atoms: _278  and  _281
REMARK  112  A    between atoms: _281  and  _282
REMARK  113  A    between atoms: _285  and  _287
REMARK  114  A    between atoms: _287  and  _288
REMARK  115  A    between atoms: _287  and  _290
REMARK  116  A    between atoms: _290  and  _291
REMARK  117  A    between atoms: _294  and  _296
REMARK  118  A    between atoms: _296  and  _297
REMARK  119  A    between atoms: _296  and  _299
REMARK  120  A    between atoms: _299  and  _300
REMARK  121  A    between atoms: _303  and  _305
REMARK  122  A    between atoms: _305  and  _306
REMARK  123  A    between atoms: _308  and  _310
REMARK  124  A    between atoms: _310  and  _311
REMARK  125  A    between atoms: _314  and  _316
REMARK  126  A    between atoms: _316  and  _317
REMARK  127  A    between atoms: _316  and  _319
REMARK  128  A    between atoms: _319  and  _320
REMARK  129  A    between atoms: _323  and  _325
REMARK  130  A    between atoms: _325  and  _326
REMARK  131  A    between atoms: _325  and  _328
REMARK  132  A    between atoms: _328  and  _329
REMARK  133  A    between atoms: _332  and  _334
REMARK  134  A    between atoms: _334  and  _335
REMARK  135  A    between atoms: _334  and  _337
REMARK  136  A    between atoms: _337  and  _338
REMARK  137  A    between atoms: _341  and  _343
REMARK  138  A    between atoms: _343  and  _344
REMARK  139  A    between atoms: _343  and  _346
REMARK  140  A    between atoms: _349  and  _351
REMARK  141  A    between atoms: _351  and  _352
REMARK  142  A    between atoms: _351  and  _354
REMARK  143  A    between atoms: _354  and  _355
REMARK  144  A    between atoms: _355  and  _356
REMARK  145  A    between atoms: _356  and  _357
REMARK  146  A    between atoms: _357  and  _358
REMARK  147  A    between atoms: _362  and  _364
REMARK  148  A    between atoms: _364  and  _365
REMARK  149  A    between atoms: _364  and  _367
REMARK  150  A    between atoms: _367  and  _368
REMARK  151  A    between atoms: _368  and  _369
REMARK  152  A    between atoms: _371  and  _373
REMARK  153  A    between atoms: _373  and  _374
REMARK  154  A    between atoms: _373  and  _376
REMARK  155  A    between atoms: _376  and  _377
REMARK  156  A    between atoms: _380  and  _382
REMARK  157  A    between atoms: _382  and  _383
REMARK  158  A    between atoms: _385  and  _387
REMARK  159  A    between atoms: _387  and  _388
REMARK  160  A    between atoms: _390  and  _392
REMARK  161  A    between atoms: _392  and  _393
REMARK  162  A    between atoms: _392  and  _395
REMARK  163  A    between atoms: _395  and  _396
REMARK  164  A    between atoms: _399  and  _401
REMARK  165  A    between atoms: _401  and  _402
REMARK  166  A    between atoms: _404  and  _406
REMARK  167  A    between atoms: _406  and  _407
REMARK  168  A    between atoms: _409  and  _411
REMARK  169  A    between atoms: _411  and  _412
REMARK  170  A    between atoms: _411  and  _414
REMARK  171  A    between atoms: _414  and  _415
REMARK  172  A    between atoms: _421  and  _423
REMARK  173  A    between atoms: _423  and  _424
REMARK  174  A    between atoms: _423  and  _426
REMARK  175  A    between atoms: _426  and  _427
REMARK  176  A    between atoms: _430  and  _432
REMARK  177  A    between atoms: _432  and  _433
REMARK  178  A    between atoms: _432  and  _435
REMARK  179  A    between atoms: _438  and  _440
REMARK  180  A    between atoms: _440  and  _441
REMARK  181  A    between atoms: _440  and  _443
REMARK  182  A    between atoms: _443  and  _444
REMARK  183  A    between atoms: _448  and  _449
REMARK  184  A    between atoms: _454  and  _456
REMARK  185  A    between atoms: _456  and  _457
REMARK  186  A    between atoms: _456  and  _459
REMARK  187  A    between atoms: _459  and  _460
REMARK  188  A    between atoms: _464  and  _465
REMARK  189  A    between atoms: _470  and  _472
REMARK  190  A    between atoms: _472  and  _473
REMARK  191  A    between atoms: _472  and  _475
REMARK  192  A    between atoms: _478  and  _480
REMARK  193  A    between atoms: _480  and  _481
REMARK  194  A    between atoms: _480  and  _483
REMARK  195  A    between atoms: _483  and  _484
REMARK  196  A    between atoms: _489  and  _491
REMARK  197  A    between atoms: _491  and  _492
REMARK  198  A    between atoms: _491  and  _494
REMARK  199  A    between atoms: _494  and  _495
REMARK  200  A    between atoms: _498  and  _500
REMARK  201  A    between atoms: _500  and  _501
REMARK  202  A    between atoms: _500  and  _503
REMARK  203  A    between atoms: _503  and  _504
REMARK  204  A    between atoms: _507  and  _509
REMARK  205  A    between atoms: _509  and  _510
REMARK  206  A    between atoms: _512  and  _514
REMARK  207  A    between atoms: _514  and  _515
REMARK  208  A    between atoms: _514  and  _517
REMARK  209  A    between atoms: _517  and  _518
REMARK  210  A    between atoms: _518  and  _519
REMARK  211  A    between atoms: _519  and  _520
REMARK  212  A    between atoms: _529  and  _531
REMARK  213  A    between atoms: _531  and  _532
REMARK  214  A    between atoms: _531  and  _534
REMARK  215  A    between atoms: _534  and  _535
REMARK                            x       y       z     vdW  Elec       q    Type
REMARK                         _______ _______ _______ _____ _____    ______ ____
ROOT
ATOM      1  O   HOH     1      19.669  37.035  18.588  0.00  0.00    +0.000 OA
ENDROOT
TORSDOF 0
REMARK  Name = ../refined-set-2016/2qi5/2qi5_pocket.pdb
REMARK  215 active torsions:
REMARK  status: ('A' for Active; 'I' for Inactive)
REMARK    1  A    between atoms: _1  and  _3
REMARK    2  A    between atoms: _3  and  _4
REMARK    3  A    between atoms: _3  and  _6
REMARK    4  A    between atoms: _6  and  _7
REMARK    5  A    between atoms: _7  and  _8
REMARK    6  A    between atoms: _8  and  _9
REMARK    7  A    between atoms: _18  and  _20
REMARK    8  A    between atoms: _20  and  _21
REMARK    9  A    between atoms: _20  and  _23
REMARK   10  A    between atoms: _23  and  _24
REMARK   11  A    between atoms: _27  and  _29
REMARK   12  A    between atoms: _29  and  _30
REMARK   13  A    between atoms: _29  and  _32
REMARK   14  A    between atoms: _32  and  _33
REMARK   15  A    between atoms: _36  and  _38
REMARK   16  A    between atoms: _38  and  _39
REMARK   17  A    between atoms: _38  and  _41
REMARK   18  A    between atoms: _41  and  _42
REMARK   19  A    between atoms: _45  and  _47
REMARK   20  A    between atoms: _47  and  _48
REMARK   21  A    between atoms: _47  and  _50
REMARK   22  A    between atoms: _50  and  _51
REMARK   23  A    between atoms: _54  and  _56
REMARK   24  A    between atoms: _56  and  _57
REMARK   25  A    between atoms: _59  and  _61
REMARK   26  A    between atoms: _61  and  _62
REMARK   27  A    between atoms: _65  and  _67
REMARK   28  A    between atoms: _67  and  _68
REMARK   29  A    between atoms: _67  and  _70
REMARK   30  A    between atoms: _70  and  _71
REMARK   31  A    between atoms: _74  and  _76
REMARK   32  A    between atoms: _76  and  _77
REMARK   33  A    between atoms: _76  and  _79
REMARK   34  A    between atoms: _79  and  _80
REMARK   35  A    between atoms: _83  and  _85
REMARK   36  A    between atoms: _85  and  _86
REMARK   37  A    between atoms: _85  and  _88
REMARK   38  A    between atoms: _88  and  _89
REMARK   39  A    between atoms: _92  and  _94
REMARK   40  A    between atoms: _94  and  _95
REMARK   41  A    between atoms: _94  and  _97
REMARK   42  A    between atoms: _100  and  _102
REMARK   43  A    between atoms: _102  and  _103
REMARK   44  A    between atoms: _102  and  _105
REMARK   45  A    between atoms: _105  and  _106
REMARK   46  A    between atoms: _109  and  _111
REMARK   47  A    between atoms: _111  and  _112
REMARK   48  A    between atoms: _114  and  _116
REMARK   49  A    between atoms: _116  and  _117
REMARK   50  A    between atoms: _119  and  _121
REMARK   51  A    between atoms: _121  and  _122
REMARK   52  A    between atoms: _121  and  _124
REMARK   53  A    between atoms: _124  and  _125
REMARK   54  A    between atoms: _128  and  _130
REMARK   55  A    between atoms: _130  and  _131
REMARK   56  A    between atoms: _133  and  _135
REMARK   57  A    between atoms: _135  and  _136
REMARK   58  A    between atoms: _138  and  _140
REMARK   59  A    between atoms: _140  and  _141
REMARK   60  A    between atoms: _140  and  _143
REMARK   61  A    between atoms: _143  and  _144
REMARK   62  A    between atoms: _150  and  _152
REMARK   63  A    between atoms: _152  and  _153
REMARK   64  A    between atoms: _152  and  _155
REMARK   65  A    between atoms: _155  and  _156
REMARK   66  A    between atoms: _159  and  _161
REMARK   67  A    between atoms: _161  and  _162
REMARK   68  A    between atoms: _161  and  _164
REMARK   69  A    between atoms: _164  and  _165
REMARK   70  A    between atoms: _169  and  _170
REMARK   71  A    between atoms: _175  and  _177
REMARK   72  A    between atoms: _177  and  _178
REMARK   73  A    between atoms: _177  and  _180
REMARK   74  A    between atoms: _180  and  _181
REMARK   75  A    between atoms: _185  and  _186
REMARK   76  A    between atoms: _191  and  _193
REMARK   77  A    between atoms: _193  and  _194
REMARK   78  A    between atoms: _193  and  _196
REMARK   79  A    between atoms: _199  and  _201
REMARK   80  A    between atoms: _201  and  _202
REMARK   81  A    between atoms: _201  and  _204
REMARK   82  A    between atoms: _204  and  _205
REMARK   83  A    between atoms: _210  and  _212
REMARK   84  A    between atoms: _212  and  _213
REMARK   85  A    between atoms: _212  and  _215
REMARK   86  A    between atoms: _215  and  _216
REMARK   87  A    between atoms: _219  and  _221
REMARK   88  A    between atoms: _221  and  _222
REMARK   89  A    between atoms: _221  and  _224
REMARK   90  A    between atoms: _224  and  _225
REMARK   91  A    between atoms: _228  and  _230
REMARK   92  A    between atoms: _230  and  _231
REMARK   93  A    between atoms: _233  and  _235
REMARK   94  A    between atoms: _235  and  _236
REMARK   95  A    between atoms: _235  and  _238
REMARK   96  A    between atoms: _238  and  _239
REMARK   97  A    between atoms: _239  and  _240
REMARK   98  A    between atoms: _240  and  _241
REMARK   99  A    between atoms: _250  and  _252
REMARK  100  A    between atoms: _252  and  _253
REMARK  101  A    between atoms: _252  and  _255
REMARK  102  A    between atoms: _255  and  _256
REMARK  103  A    between atoms: _256  and  _257
REMARK  104  A    between atoms: _257  and  _258
REMARK  105  A    between atoms: _267  and  _269
REMARK  106  A    between atoms: _269  and  _270
REMARK  107  A    between atoms: _269  and  _272
REMARK  108  A    between atoms: _272  and  _273
REMARK  109  A    between atoms: _276  and  _278
REMARK  110  A    between atoms: _278  and  _279
REMARK  111  A    between atoms: _278  and  _281
REMARK  112  A    between atoms: _281  and  _282
REMARK  113  A    between atoms: _285  and  _287
REMARK  114  A    between atoms: _287  and  _288
REMARK  115  A    between atoms: _287  and  _290
REMARK  116  A    between atoms: _290  and  _291
REMARK  117  A    between atoms: _294  and  _296
REMARK  118  A    between atoms: _296  and  _297
REMARK  119  A    between atoms: _296  and  _299
REMARK  120  A    between atoms: _299  and  _300
REMARK  121  A    between atoms: _303  and  _305
REMARK  122  A    between atoms: _305  and  _306
REMARK  123  A    between atoms: _308  and  _310
REMARK  124  A    between atoms: _310  and  _311
REMARK  125  A    between atoms: _314  and  _316
REMARK  126  A    between atoms: _316  and  _317
REMARK  127  A    between atoms: _316  and  _319
REMARK  128  A    between atoms: _319  and  _320
REMARK  129  A    between atoms: _323  and  _325
REMARK  130  A    between atoms: _325  and  _326
REMARK  131  A    between atoms: _325  and  _328
REMARK  132  A    between atoms: _328  and  _329
REMARK  133  A    between atoms: _332  and  _334
REMARK  134  A    between atoms: _334  and  _335
REMARK  135  A    between atoms: _334  and  _337
REMARK  136  A    between atoms: _337  and  _338
REMARK  137  A    between atoms: _341  and  _343
REMARK  138  A    between atoms: _343  and  _344
REMARK  139  A    between atoms: _343  and  _346
REMARK  140  A    between atoms: _349  and  _351
REMARK  141  A    between atoms: _351  and  _352
REMARK  142  A    between atoms: _351  and  _354
REMARK  143  A    between atoms: _354  and  _355
REMARK  144  A    between atoms: _355  and  _356
REMARK  145  A    between atoms: _356  and  _357
REMARK  146  A    between atoms: _357  and  _358
REMARK  147  A    between atoms: _362  and  _364
REMARK  148  A    between atoms: _364  and  _365
REMARK  149  A    between atoms: _364  and  _367
REMARK  150  A    between atoms: _367  and  _368
REMARK  151  A    between atoms: _368  and  _369
REMARK  152  A    between atoms: _371  and  _373
REMARK  153  A    between atoms: _373  and  _374
REMARK  154  A    between atoms: _373  and  _376
REMARK  155  A    between atoms: _376  and  _377
REMARK  156  A    between atoms: _380  and  _382
REMARK  157  A    between atoms: _382  and  _383
REMARK  158  A    between atoms: _385  and  _387
REMARK  159  A    between atoms: _387  and  _388
REMARK  160  A    between atoms: _390  and  _392
REMARK  161  A    between atoms: _392  and  _393
REMARK  162  A    between atoms: _392  and  _395
REMARK  163  A    between atoms: _395  and  _396
REMARK  164  A    between atoms: _399  and  _401
REMARK  165  A    between atoms: _401  and  _402
REMARK  166  A    between atoms: _404  and  _406
REMARK  167  A    between atoms: _406  and  _407
REMARK  168  A    between atoms: _409  and  _411
REMARK  169  A    between atoms: _411  and  _412
REMARK  170  A    between atoms: _411  and  _414
REMARK  171  A    between atoms: _414  and  _415
REMARK  172  A    between atoms: _421  and  _423
REMARK  173  A    between atoms: _423  and  _424
REMARK  174  A    between atoms: _423  and  _426
REMARK  175  A    between atoms: _426  and  _427
REMARK  176  A    between atoms: _430  and  _432
REMARK  177  A    between atoms: _432  and  _433
REMARK  178  A    between atoms: _432  and  _435
REMARK  179  A    between atoms: _438  and  _440
REMARK  180  A    between atoms: _440  and  _441
REMARK  181  A    between atoms: _440  and  _443
REMARK  182  A    between atoms: _443  and  _444
REMARK  183  A    between atoms: _448  and  _449
REMARK  184  A    between atoms: _454  and  _456
REMARK  185  A    between atoms: _456  and  _457
REMARK  186  A    between atoms: _456  and  _459
REMARK  187  A    between atoms: _459  and  _460
REMARK  188  A    between atoms: _464  and  _465
REMARK  189  A    between atoms: _470  and  _472
REMARK  190  A    between atoms: _472  and  _473
REMARK  191  A    between atoms: _472  and  _475
REMARK  192  A    between atoms: _478  and  _480
REMARK  193  A    between atoms: _480  and  _481
REMARK  194  A    between atoms: _480  and  _483
REMARK  195  A    between atoms: _483  and  _484
REMARK  196  A    between atoms: _489  and  _491
REMARK  197  A    between atoms: _491  and  _492
REMARK  198  A    between atoms: _491  and  _494
REMARK  199  A    between atoms: _494  and  _495
REMARK  200  A    between atoms: _498  and  _500
REMARK  201  A    between atoms: _500  and  _501
REMARK  202  A    between atoms: _500  and  _503
REMARK  203  A    between atoms: _503  and  _504
REMARK  204  A    between atoms: _507  and  _509
REMARK  205  A    between atoms: _509  and  _510
REMARK  206  A    between atoms: _512  and  _514
REMARK  207  A    between atoms: _514  and  _515
REMARK  208  A    between atoms: _514  and  _517
REMARK  209  A    between atoms: _517  and  _518
REMARK  210  A    between atoms: _518  and  _519
REMARK  211  A    between atoms: _519  and  _520
REMARK  212  A    between atoms: _529  and  _531
REMARK  213  A    between atoms: _531  and  _532
REMARK  214  A    between atoms: _531  and  _534
REMARK  215  A    between atoms: _534  and  _535
REMARK                            x       y       z     vdW  Elec       q    Type
REMARK                         _______ _______ _______ _____ _____    ______ ____
ROOT
ATOM      1  O   HOH     1      14.772  20.224  10.787  0.00  0.00    +0.000 OA
ENDROOT
TORSDOF 0
